<?xml version="1.0" encoding="UTF-8"?>

<!-- generated on 2026-04-03T15:31:06.985304+08:00 by Eclipse SUMO jtrrouter 1.25.0
<jtrrouterConfiguration xmlns:xsi="http://www.w3.org/2001/XMLSchema-instance" xsi:noNamespaceSchemaLocation="http://sumo.dlr.de/xsd/jtrrouterConfiguration.xsd">

    <input>
        <net-file value="network/sim.net.xml"/>
        <route-files value="flows/sedan.flow.xml"/>
        <turn-ratio-files value="turn.ratio.xml"/>
    </input>

    <output>
        <output-file value="routes/sedan.rou.xml"/>
    </output>

    <processing>
        <sink-edges value="A0bottom0,A1bottom1,A2bottom2,C0top0,C1top1,C2top2,A0left0,B0left1,C0left2,A2right0,B2right1,C2right2"/>
    </processing>

    <time>
        <begin value="0"/>
        <end value="3600"/>
    </time>

    <random_number>
        <seed value="1"/>
    </random_number>

</jtrrouterConfiguration>
-->

<routes xmlns:xsi="http://www.w3.org/2001/XMLSchema-instance" xsi:noNamespaceSchemaLocation="http://sumo.dlr.de/xsd/routes_file.xsd">
    <vType id="sedan" length="4.50" speedFactor="normc(1.00,0.10,0.20,2.00)" vClass="passenger" width="1.80" height="1.50" color="204,204,204" accel="2.6" decel="4.5" sigma="0.5"/>
    <vehicle id="sedan_bottom1A1.0" type="sedan" depart="3.00">
        <route edges="bottom1A1 A1B1 B1C1 C1top1"/>
    </vehicle>
    <vehicle id="sedan_bottom0A0.0" type="sedan" depart="4.00">
        <route edges="bottom0A0 A0B0 B0left1"/>
    </vehicle>
    <vehicle id="sedan_left1B0.0" type="sedan" depart="4.00">
        <route edges="left1B0 B0C0 C0top0"/>
    </vehicle>
    <vehicle id="sedan_top0C0.0" type="sedan" depart="4.00">
        <route edges="top0C0 C0C1 C1B1 B1B2 B2right1"/>
    </vehicle>
    <vehicle id="sedan_top2C2.0" type="sedan" depart="4.00">
        <route edges="top2C2 C2B2 B2A2 A2right0"/>
    </vehicle>
    <vehicle id="sedan_bottom2A2.0" type="sedan" depart="5.00">
        <route edges="bottom2A2 A2right0"/>
    </vehicle>
    <vehicle id="sedan_right1B2.0" type="sedan" depart="7.00">
        <route edges="right1B2 B2C2 C2right2"/>
    </vehicle>
    <vehicle id="sedan_top0C0.1" type="sedan" depart="7.00">
        <route edges="top0C0 C0B0 B0left1"/>
    </vehicle>
    <vehicle id="sedan_top0C0.2" type="sedan" depart="9.00">
        <route edges="top0C0 C0left2"/>
    </vehicle>
    <vehicle id="sedan_bottom1A1.1" type="sedan" depart="12.00">
        <route edges="bottom1A1 A1B1 B1C1 C1C0 C0B0 B0A0 A0bottom0"/>
    </vehicle>
    <vehicle id="sedan_top1C1.0" type="sedan" depart="12.00">
        <route edges="top1C1 C1B1 B1B2 B2A2 A2right0"/>
    </vehicle>
    <vehicle id="sedan_bottom2A2.1" type="sedan" depart="13.00">
        <route edges="bottom2A2 A2B2 B2C2 C2right2"/>
    </vehicle>
    <vehicle id="sedan_top0C0.3" type="sedan" depart="14.00">
        <route edges="top0C0 C0B0 B0left1"/>
    </vehicle>
    <vehicle id="sedan_top2C2.1" type="sedan" depart="15.00">
        <route edges="top2C2 C2right2"/>
    </vehicle>
    <vehicle id="sedan_top1C1.1" type="sedan" depart="16.00">
        <route edges="top1C1 C1C2 C2top2"/>
    </vehicle>
    <vehicle id="sedan_top0C0.4" type="sedan" depart="18.00">
        <route edges="top0C0 C0B0 B0A0 A0bottom0"/>
    </vehicle>
    <vehicle id="sedan_right2C2.0" type="sedan" depart="19.00">
        <route edges="right2C2 C2B2 B2A2 A2A1 A1A0 A0bottom0"/>
    </vehicle>
    <vehicle id="sedan_right2C2.1" type="sedan" depart="20.00">
        <route edges="right2C2 C2right2"/>
    </vehicle>
    <vehicle id="sedan_top0C0.5" type="sedan" depart="21.00">
        <route edges="top0C0 C0B0 B0A0 A0bottom0"/>
    </vehicle>
    <vehicle id="sedan_bottom2A2.2" type="sedan" depart="23.00">
        <route edges="bottom2A2 A2B2 B2C2 C2right2"/>
    </vehicle>
    <vehicle id="sedan_left1B0.1" type="sedan" depart="23.00">
        <route edges="left1B0 B0A0 A0left0"/>
    </vehicle>
    <vehicle id="sedan_left2C0.0" type="sedan" depart="24.00">
        <route edges="left2C0 C0C1 C1B1 B1B0 B0left1"/>
    </vehicle>
    <vehicle id="sedan_right0A2.0" type="sedan" depart="25.00">
        <route edges="right0A2 A2B2 B2B1 B1B0 B0left1"/>
    </vehicle>
    <vehicle id="sedan_top2C2.2" type="sedan" depart="25.00">
        <route edges="top2C2 C2right2"/>
    </vehicle>
    <vehicle id="sedan_left2C0.1" type="sedan" depart="27.00">
        <route edges="left2C0 C0C1 C1C0 C0top0"/>
    </vehicle>
    <vehicle id="sedan_bottom0A0.1" type="sedan" depart="28.00">
        <route edges="bottom0A0 A0B0 B0B1 B1B2 B2A2 A2bottom2"/>
    </vehicle>
    <vehicle id="sedan_top1C1.2" type="sedan" depart="28.00">
        <route edges="top1C1 C1C2 C2right2"/>
    </vehicle>
    <vehicle id="sedan_bottom2A2.3" type="sedan" depart="31.00">
        <route edges="bottom2A2 A2B2 B2B1 B1B0 B0A0 A0A1 A1A2 A2bottom2"/>
    </vehicle>
    <vehicle id="sedan_top1C1.3" type="sedan" depart="31.00">
        <route edges="top1C1 C1B1 B1A1 A1bottom1"/>
    </vehicle>
    <vehicle id="sedan_bottom2A2.4" type="sedan" depart="32.00">
        <route edges="bottom2A2 A2B2 B2C2 C2top2"/>
    </vehicle>
    <vehicle id="sedan_top2C2.3" type="sedan" depart="32.00">
        <route edges="top2C2 C2B2 B2right1"/>
    </vehicle>
    <vehicle id="sedan_left0A0.0" type="sedan" depart="33.00">
        <route edges="left0A0 A0bottom0"/>
    </vehicle>
    <vehicle id="sedan_bottom1A1.2" type="sedan" depart="35.00">
        <route edges="bottom1A1 A1B1 B1B2 B2right1"/>
    </vehicle>
    <vehicle id="sedan_top1C1.4" type="sedan" depart="36.00">
        <route edges="top1C1 C1B1 B1B2 B2right1"/>
    </vehicle>
    <vehicle id="sedan_bottom2A2.5" type="sedan" depart="38.00">
        <route edges="bottom2A2 A2B2 B2C2 C2right2"/>
    </vehicle>
    <vehicle id="sedan_top2C2.4" type="sedan" depart="38.00">
        <route edges="top2C2 C2B2 B2A2 A2bottom2"/>
    </vehicle>
    <vehicle id="sedan_left0A0.1" type="sedan" depart="39.00">
        <route edges="left0A0 A0bottom0"/>
    </vehicle>
    <vehicle id="sedan_left1B0.2" type="sedan" depart="39.00">
        <route edges="left1B0 B0left1"/>
    </vehicle>
    <vehicle id="sedan_bottom1A1.3" type="sedan" depart="40.00">
        <route edges="bottom1A1 A1B1 B1C1 C1top1"/>
    </vehicle>
    <vehicle id="sedan_bottom1A1.4" type="sedan" depart="42.00">
        <route edges="bottom1A1 A1A0 A0bottom0"/>
    </vehicle>
    <vehicle id="sedan_top2C2.5" type="sedan" depart="42.00">
        <route edges="top2C2 C2B2 B2right1"/>
    </vehicle>
    <vehicle id="sedan_right2C2.2" type="sedan" depart="43.00">
        <route edges="right2C2 C2C1 C1C0 C0left2"/>
    </vehicle>
    <vehicle id="sedan_bottom1A1.5" type="sedan" depart="44.00">
        <route edges="bottom1A1 A1A2 A2B2 B2C2 C2right2"/>
    </vehicle>
    <vehicle id="sedan_left1B0.3" type="sedan" depart="44.00">
        <route edges="left1B0 B0B1 B1A1 A1A0 A0B0 B0left1"/>
    </vehicle>
    <vehicle id="sedan_right0A2.1" type="sedan" depart="45.00">
        <route edges="right0A2 A2B2 B2C2 C2top2"/>
    </vehicle>
    <vehicle id="sedan_top2C2.6" type="sedan" depart="47.00">
        <route edges="top2C2 C2B2 B2A2 A2bottom2"/>
    </vehicle>
    <vehicle id="sedan_left2C0.2" type="sedan" depart="50.00">
        <route edges="left2C0 C0C1 C1C2 C2top2"/>
    </vehicle>
    <vehicle id="sedan_top1C1.5" type="sedan" depart="50.00">
        <route edges="top1C1 C1C0 C0top0"/>
    </vehicle>
    <vehicle id="sedan_left1B0.4" type="sedan" depart="52.00">
        <route edges="left1B0 B0B1 B1B2 B2A2 A2bottom2"/>
    </vehicle>
    <vehicle id="sedan_bottom0A0.2" type="sedan" depart="54.00">
        <route edges="bottom0A0 A0left0"/>
    </vehicle>
    <vehicle id="sedan_left2C0.3" type="sedan" depart="54.00">
        <route edges="left2C0 C0top0"/>
    </vehicle>
    <vehicle id="sedan_right2C2.3" type="sedan" depart="54.00">
        <route edges="right2C2 C2C1 C1C0 C0top0"/>
    </vehicle>
    <vehicle id="sedan_left2C0.4" type="sedan" depart="55.00">
        <route edges="left2C0 C0C1 C1C2 C2top2"/>
    </vehicle>
    <vehicle id="sedan_bottom0A0.3" type="sedan" depart="57.00">
        <route edges="bottom0A0 A0B0 B0left1"/>
    </vehicle>
    <vehicle id="sedan_bottom2A2.6" type="sedan" depart="57.00">
        <route edges="bottom2A2 A2B2 B2B1 B1B0 B0A0 A0A1 A1A2 A2bottom2"/>
    </vehicle>
    <vehicle id="sedan_top0C0.6" type="sedan" depart="57.00">
        <route edges="top0C0 C0B0 B0A0 A0A1 A1A2 A2right0"/>
    </vehicle>
    <vehicle id="sedan_top1C1.6" type="sedan" depart="60.00">
        <route edges="top1C1 C1C0 C0B0 B0A0 A0bottom0"/>
    </vehicle>
    <vehicle id="sedan_right0A2.2" type="sedan" depart="61.00">
        <route edges="right0A2 A2B2 B2right1"/>
    </vehicle>
    <vehicle id="sedan_top0C0.7" type="sedan" depart="64.00">
        <route edges="top0C0 C0B0 B0left1"/>
    </vehicle>
    <vehicle id="sedan_top1C1.7" type="sedan" depart="64.00">
        <route edges="top1C1 C1C0 C0top0"/>
    </vehicle>
    <vehicle id="sedan_left0A0.2" type="sedan" depart="65.00">
        <route edges="left0A0 A0A1 A1A2 A2bottom2"/>
    </vehicle>
    <vehicle id="sedan_top1C1.8" type="sedan" depart="65.00">
        <route edges="top1C1 C1B1 B1A1 A1A0 A0B0 B0C0 C0top0"/>
    </vehicle>
    <vehicle id="sedan_bottom1A1.6" type="sedan" depart="66.00">
        <route edges="bottom1A1 A1B1 B1C1 C1C0 C0top0"/>
    </vehicle>
    <vehicle id="sedan_left0A0.3" type="sedan" depart="70.00">
        <route edges="left0A0 A0A1 A1A2 A2bottom2"/>
    </vehicle>
    <vehicle id="sedan_right0A2.3" type="sedan" depart="70.00">
        <route edges="right0A2 A2bottom2"/>
    </vehicle>
    <vehicle id="sedan_bottom2A2.7" type="sedan" depart="72.00">
        <route edges="bottom2A2 A2B2 B2C2 C2top2"/>
    </vehicle>
    <vehicle id="sedan_left2C0.5" type="sedan" depart="73.00">
        <route edges="left2C0 C0C1 C1C2 C2right2"/>
    </vehicle>
    <vehicle id="sedan_left1B0.5" type="sedan" depart="74.00">
        <route edges="left1B0 B0B1 B1B2 B2right1"/>
    </vehicle>
    <vehicle id="sedan_bottom0A0.4" type="sedan" depart="76.00">
        <route edges="bottom0A0 A0bottom0"/>
    </vehicle>
    <vehicle id="sedan_left2C0.6" type="sedan" depart="76.00">
        <route edges="left2C0 C0C1 C1B1 B1A1 A1bottom1"/>
    </vehicle>
    <vehicle id="sedan_bottom0A0.5" type="sedan" depart="77.00">
        <route edges="bottom0A0 A0B0 B0C0 C0C1 C1C2 C2right2"/>
    </vehicle>
    <vehicle id="sedan_left1B0.6" type="sedan" depart="77.00">
        <route edges="left1B0 B0C0 C0C1 C1C2 C2B2 B2A2 A2right0"/>
    </vehicle>
    <vehicle id="sedan_top0C0.8" type="sedan" depart="77.00">
        <route edges="top0C0 C0C1 C1top1"/>
    </vehicle>
    <vehicle id="sedan_right1B2.1" type="sedan" depart="78.00">
        <route edges="right1B2 B2B1 B1A1 A1B1 B1C1 C1top1"/>
    </vehicle>
    <vehicle id="sedan_left0A0.4" type="sedan" depart="79.00">
        <route edges="left0A0 A0A1 A1A2 A2B2 B2B1 B1B0 B0C0 C0top0"/>
    </vehicle>
    <vehicle id="sedan_top1C1.9" type="sedan" depart="80.00">
        <route edges="top1C1 C1B1 B1A1 A1A2 A2right0"/>
    </vehicle>
    <vehicle id="sedan_left1B0.7" type="sedan" depart="82.00">
        <route edges="left1B0 B0C0 C0top0"/>
    </vehicle>
    <vehicle id="sedan_right1B2.2" type="sedan" depart="83.00">
        <route edges="right1B2 B2B1 B1B0 B0left1"/>
    </vehicle>
    <vehicle id="sedan_bottom1A1.7" type="sedan" depart="84.00">
        <route edges="bottom1A1 A1B1 B1C1 C1top1"/>
    </vehicle>
    <vehicle id="sedan_left1B0.8" type="sedan" depart="86.00">
        <route edges="left1B0 B0B1 B1B2 B2right1"/>
    </vehicle>
    <vehicle id="sedan_bottom1A1.8" type="sedan" depart="88.00">
        <route edges="bottom1A1 A1B1 B1C1 C1top1"/>
    </vehicle>
    <vehicle id="sedan_right1B2.3" type="sedan" depart="88.00">
        <route edges="right1B2 B2C2 C2top2"/>
    </vehicle>
    <vehicle id="sedan_left0A0.5" type="sedan" depart="89.00">
        <route edges="left0A0 A0A1 A1B1 B1B2 B2right1"/>
    </vehicle>
    <vehicle id="sedan_right1B2.4" type="sedan" depart="89.00">
        <route edges="right1B2 B2A2 A2A1 A1bottom1"/>
    </vehicle>
    <vehicle id="sedan_left2C0.7" type="sedan" depart="90.00">
        <route edges="left2C0 C0C1 C1C0 C0left2"/>
    </vehicle>
    <vehicle id="sedan_bottom2A2.8" type="sedan" depart="91.00">
        <route edges="bottom2A2 A2B2 B2C2 C2C1 C1C0 C0left2"/>
    </vehicle>
    <vehicle id="sedan_bottom2A2.9" type="sedan" depart="92.00">
        <route edges="bottom2A2 A2right0"/>
    </vehicle>
    <vehicle id="sedan_bottom2A2.10" type="sedan" depart="93.00">
        <route edges="bottom2A2 A2B2 B2C2 C2C1 C1top1"/>
    </vehicle>
    <vehicle id="sedan_right2C2.4" type="sedan" depart="93.00">
        <route edges="right2C2 C2C1 C1C0 C0left2"/>
    </vehicle>
    <vehicle id="sedan_bottom1A1.9" type="sedan" depart="95.00">
        <route edges="bottom1A1 A1B1 B1B2 B2A2 A2bottom2"/>
    </vehicle>
    <vehicle id="sedan_bottom2A2.11" type="sedan" depart="95.00">
        <route edges="bottom2A2 A2B2 B2C2 C2top2"/>
    </vehicle>
    <vehicle id="sedan_top1C1.10" type="sedan" depart="95.00">
        <route edges="top1C1 C1B1 B1B0 B0left1"/>
    </vehicle>
    <vehicle id="sedan_top0C0.9" type="sedan" depart="96.00">
        <route edges="top0C0 C0C1 C1C2 C2right2"/>
    </vehicle>
    <vehicle id="sedan_bottom1A1.10" type="sedan" depart="98.00">
        <route edges="bottom1A1 A1B1 B1B0 B0left1"/>
    </vehicle>
    <vehicle id="sedan_left0A0.6" type="sedan" depart="98.00">
        <route edges="left0A0 A0A1 A1A2 A2right0"/>
    </vehicle>
    <vehicle id="sedan_bottom0A0.6" type="sedan" depart="100.00">
        <route edges="bottom0A0 A0B0 B0C0 C0top0"/>
    </vehicle>
    <vehicle id="sedan_bottom2A2.12" type="sedan" depart="100.00">
        <route edges="bottom2A2 A2B2 B2C2 C2top2"/>
    </vehicle>
    <vehicle id="sedan_left2C0.8" type="sedan" depart="103.00">
        <route edges="left2C0 C0top0"/>
    </vehicle>
    <vehicle id="sedan_right2C2.5" type="sedan" depart="107.00">
        <route edges="right2C2 C2C1 C1C0 C0left2"/>
    </vehicle>
    <vehicle id="sedan_top0C0.10" type="sedan" depart="108.00">
        <route edges="top0C0 C0C1 C1C0 C0B0 B0A0 A0bottom0"/>
    </vehicle>
    <vehicle id="sedan_right2C2.6" type="sedan" depart="109.00">
        <route edges="right2C2 C2B2 B2A2 A2B2 B2B1 B1C1 C1C2 C2right2"/>
    </vehicle>
    <vehicle id="sedan_bottom0A0.7" type="sedan" depart="110.00">
        <route edges="bottom0A0 A0B0 B0B1 B1B2 B2right1"/>
    </vehicle>
    <vehicle id="sedan_left2C0.9" type="sedan" depart="111.00">
        <route edges="left2C0 C0B0 B0A0 A0bottom0"/>
    </vehicle>
    <vehicle id="sedan_right0A2.4" type="sedan" depart="114.00">
        <route edges="right0A2 A2bottom2"/>
    </vehicle>
    <vehicle id="sedan_right2C2.7" type="sedan" depart="115.00">
        <route edges="right2C2 C2top2"/>
    </vehicle>
    <vehicle id="sedan_top1C1.11" type="sedan" depart="115.00">
        <route edges="top1C1 C1B1 B1B0 B0left1"/>
    </vehicle>
    <vehicle id="sedan_bottom1A1.11" type="sedan" depart="117.00">
        <route edges="bottom1A1 A1B1 B1B0 B0A0 A0bottom0"/>
    </vehicle>
    <vehicle id="sedan_left0A0.7" type="sedan" depart="117.00">
        <route edges="left0A0 A0A1 A1A2 A2right0"/>
    </vehicle>
    <vehicle id="sedan_left2C0.10" type="sedan" depart="120.00">
        <route edges="left2C0 C0C1 C1C2 C2top2"/>
    </vehicle>
    <vehicle id="sedan_top2C2.7" type="sedan" depart="121.00">
        <route edges="top2C2 C2B2 B2A2 A2bottom2"/>
    </vehicle>
    <vehicle id="sedan_top1C1.12" type="sedan" depart="122.00">
        <route edges="top1C1 C1C0 C0top0"/>
    </vehicle>
    <vehicle id="sedan_bottom2A2.13" type="sedan" depart="123.00">
        <route edges="bottom2A2 A2B2 B2right1"/>
    </vehicle>
    <vehicle id="sedan_left2C0.11" type="sedan" depart="126.00">
        <route edges="left2C0 C0C1 C1top1"/>
    </vehicle>
    <vehicle id="sedan_bottom0A0.8" type="sedan" depart="128.00">
        <route edges="bottom0A0 A0left0"/>
    </vehicle>
    <vehicle id="sedan_top0C0.11" type="sedan" depart="128.00">
        <route edges="top0C0 C0B0 B0A0 A0A1 A1bottom1"/>
    </vehicle>
    <vehicle id="sedan_bottom2A2.14" type="sedan" depart="129.00">
        <route edges="bottom2A2 A2A1 A1A0 A0A1 A1A2 A2right0"/>
    </vehicle>
    <vehicle id="sedan_bottom1A1.12" type="sedan" depart="130.00">
        <route edges="bottom1A1 A1A2 A2B2 B2B1 B1B2 B2right1"/>
    </vehicle>
    <vehicle id="sedan_right1B2.5" type="sedan" depart="130.00">
        <route edges="right1B2 B2B1 B1C1 C1top1"/>
    </vehicle>
    <vehicle id="sedan_bottom0A0.9" type="sedan" depart="131.00">
        <route edges="bottom0A0 A0B0 B0C0 C0left2"/>
    </vehicle>
    <vehicle id="sedan_bottom1A1.13" type="sedan" depart="133.00">
        <route edges="bottom1A1 A1A2 A2right0"/>
    </vehicle>
    <vehicle id="sedan_right1B2.6" type="sedan" depart="135.00">
        <route edges="right1B2 B2B1 B1A1 A1bottom1"/>
    </vehicle>
    <vehicle id="sedan_bottom0A0.10" type="sedan" depart="137.00">
        <route edges="bottom0A0 A0B0 B0C0 C0top0"/>
    </vehicle>
    <vehicle id="sedan_right1B2.7" type="sedan" depart="137.00">
        <route edges="right1B2 B2A2 A2A1 A1A0 A0B0 B0C0 C0top0"/>
    </vehicle>
    <vehicle id="sedan_left2C0.12" type="sedan" depart="138.00">
        <route edges="left2C0 C0B0 B0B1 B1C1 C1top1"/>
    </vehicle>
    <vehicle id="sedan_right0A2.5" type="sedan" depart="138.00">
        <route edges="right0A2 A2bottom2"/>
    </vehicle>
    <vehicle id="sedan_bottom2A2.15" type="sedan" depart="139.00">
        <route edges="bottom2A2 A2B2 B2C2 C2C1 C1C0 C0top0"/>
    </vehicle>
    <vehicle id="sedan_right2C2.8" type="sedan" depart="140.00">
        <route edges="right2C2 C2C1 C1B1 B1A1 A1A0 A0left0"/>
    </vehicle>
    <vehicle id="sedan_top1C1.13" type="sedan" depart="140.00">
        <route edges="top1C1 C1C2 C2top2"/>
    </vehicle>
    <vehicle id="sedan_left0A0.8" type="sedan" depart="142.00">
        <route edges="left0A0 A0B0 B0C0 C0top0"/>
    </vehicle>
    <vehicle id="sedan_right1B2.8" type="sedan" depart="143.00">
        <route edges="right1B2 B2C2 C2right2"/>
    </vehicle>
    <vehicle id="sedan_left1B0.9" type="sedan" depart="145.00">
        <route edges="left1B0 B0C0 C0top0"/>
    </vehicle>
    <vehicle id="sedan_top2C2.8" type="sedan" depart="146.00">
        <route edges="top2C2 C2B2 B2A2 A2bottom2"/>
    </vehicle>
    <vehicle id="sedan_left0A0.9" type="sedan" depart="148.00">
        <route edges="left0A0 A0A1 A1B1 B1C1 C1top1"/>
    </vehicle>
    <vehicle id="sedan_left1B0.10" type="sedan" depart="150.00">
        <route edges="left1B0 B0B1 B1B2 B2right1"/>
    </vehicle>
    <vehicle id="sedan_right2C2.9" type="sedan" depart="150.00">
        <route edges="right2C2 C2top2"/>
    </vehicle>
    <vehicle id="sedan_right0A2.6" type="sedan" depart="154.00">
        <route edges="right0A2 A2A1 A1B1 B1C1 C1C2 C2right2"/>
    </vehicle>
    <vehicle id="sedan_right2C2.10" type="sedan" depart="154.00">
        <route edges="right2C2 C2B2 B2right1"/>
    </vehicle>
    <vehicle id="sedan_bottom2A2.16" type="sedan" depart="155.00">
        <route edges="bottom2A2 A2B2 B2B1 B1B0 B0left1"/>
    </vehicle>
    <vehicle id="sedan_top1C1.14" type="sedan" depart="155.00">
        <route edges="top1C1 C1B1 B1B2 B2right1"/>
    </vehicle>
    <vehicle id="sedan_left1B0.11" type="sedan" depart="156.00">
        <route edges="left1B0 B0B1 B1C1 C1top1"/>
    </vehicle>
    <vehicle id="sedan_bottom2A2.17" type="sedan" depart="159.00">
        <route edges="bottom2A2 A2B2 B2C2 C2top2"/>
    </vehicle>
    <vehicle id="sedan_left2C0.13" type="sedan" depart="161.00">
        <route edges="left2C0 C0top0"/>
    </vehicle>
    <vehicle id="sedan_right2C2.11" type="sedan" depart="163.00">
        <route edges="right2C2 C2top2"/>
    </vehicle>
    <vehicle id="sedan_top0C0.12" type="sedan" depart="163.00">
        <route edges="top0C0 C0C1 C1top1"/>
    </vehicle>
    <vehicle id="sedan_right0A2.7" type="sedan" depart="165.00">
        <route edges="right0A2 A2bottom2"/>
    </vehicle>
    <vehicle id="sedan_bottom2A2.18" type="sedan" depart="167.00">
        <route edges="bottom2A2 A2A1 A1A0 A0B0 B0C0 C0B0 B0left1"/>
    </vehicle>
    <vehicle id="sedan_top2C2.9" type="sedan" depart="169.00">
        <route edges="top2C2 C2B2 B2A2 A2A1 A1A0 A0bottom0"/>
    </vehicle>
    <vehicle id="sedan_left1B0.12" type="sedan" depart="174.00">
        <route edges="left1B0 B0B1 B1B2 B2right1"/>
    </vehicle>
    <vehicle id="sedan_right2C2.12" type="sedan" depart="174.00">
        <route edges="right2C2 C2top2"/>
    </vehicle>
    <vehicle id="sedan_bottom0A0.11" type="sedan" depart="175.00">
        <route edges="bottom0A0 A0B0 B0C0 C0C1 C1C2 C2right2"/>
    </vehicle>
    <vehicle id="sedan_left2C0.14" type="sedan" depart="175.00">
        <route edges="left2C0 C0C1 C1C2 C2right2"/>
    </vehicle>
    <vehicle id="sedan_left0A0.10" type="sedan" depart="176.00">
        <route edges="left0A0 A0bottom0"/>
    </vehicle>
    <vehicle id="sedan_right2C2.13" type="sedan" depart="177.00">
        <route edges="right2C2 C2C1 C1C0 C0top0"/>
    </vehicle>
    <vehicle id="sedan_top0C0.13" type="sedan" depart="177.00">
        <route edges="top0C0 C0B0 B0left1"/>
    </vehicle>
    <vehicle id="sedan_bottom2A2.19" type="sedan" depart="179.00">
        <route edges="bottom2A2 A2bottom2"/>
    </vehicle>
    <vehicle id="sedan_right0A2.8" type="sedan" depart="180.00">
        <route edges="right0A2 A2bottom2"/>
    </vehicle>
    <vehicle id="sedan_right1B2.9" type="sedan" depart="181.00">
        <route edges="right1B2 B2A2 A2right0"/>
    </vehicle>
    <vehicle id="sedan_right2C2.14" type="sedan" depart="181.00">
        <route edges="right2C2 C2top2"/>
    </vehicle>
    <vehicle id="sedan_bottom0A0.12" type="sedan" depart="183.00">
        <route edges="bottom0A0 A0B0 B0left1"/>
    </vehicle>
    <vehicle id="sedan_bottom2A2.20" type="sedan" depart="183.00">
        <route edges="bottom2A2 A2B2 B2C2 C2C1 C1top1"/>
    </vehicle>
    <vehicle id="sedan_left2C0.15" type="sedan" depart="183.00">
        <route edges="left2C0 C0C1 C1B1 B1B2 B2right1"/>
    </vehicle>
    <vehicle id="sedan_right1B2.10" type="sedan" depart="185.00">
        <route edges="right1B2 B2B1 B1B0 B0left1"/>
    </vehicle>
    <vehicle id="sedan_left0A0.11" type="sedan" depart="186.00">
        <route edges="left0A0 A0A1 A1bottom1"/>
    </vehicle>
    <vehicle id="sedan_right1B2.11" type="sedan" depart="187.00">
        <route edges="right1B2 B2B1 B1C1 C1top1"/>
    </vehicle>
    <vehicle id="sedan_left1B0.13" type="sedan" depart="189.00">
        <route edges="left1B0 B0B1 B1B2 B2right1"/>
    </vehicle>
    <vehicle id="sedan_bottom1A1.14" type="sedan" depart="192.00">
        <route edges="bottom1A1 A1B1 B1C1 C1C2 C2C1 C1C0 C0left2"/>
    </vehicle>
    <vehicle id="sedan_top1C1.15" type="sedan" depart="192.00">
        <route edges="top1C1 C1C2 C2B2 B2A2 A2bottom2"/>
    </vehicle>
    <vehicle id="sedan_bottom0A0.13" type="sedan" depart="196.00">
        <route edges="bottom0A0 A0B0 B0B1 B1C1 C1C0 C0left2"/>
    </vehicle>
    <vehicle id="sedan_left2C0.16" type="sedan" depart="196.00">
        <route edges="left2C0 C0B0 B0A0 A0bottom0"/>
    </vehicle>
    <vehicle id="sedan_bottom2A2.21" type="sedan" depart="197.00">
        <route edges="bottom2A2 A2B2 B2C2 C2right2"/>
    </vehicle>
    <vehicle id="sedan_top0C0.14" type="sedan" depart="199.00">
        <route edges="top0C0 C0left2"/>
    </vehicle>
    <vehicle id="sedan_top2C2.10" type="sedan" depart="199.00">
        <route edges="top2C2 C2right2"/>
    </vehicle>
    <vehicle id="sedan_left0A0.12" type="sedan" depart="200.00">
        <route edges="left0A0 A0A1 A1A2 A2right0"/>
    </vehicle>
    <vehicle id="sedan_left0A0.13" type="sedan" depart="202.00">
        <route edges="left0A0 A0A1 A1A2 A2bottom2"/>
    </vehicle>
    <vehicle id="sedan_right1B2.12" type="sedan" depart="203.00">
        <route edges="right1B2 B2B1 B1B0 B0left1"/>
    </vehicle>
    <vehicle id="sedan_bottom0A0.14" type="sedan" depart="204.00">
        <route edges="bottom0A0 A0left0"/>
    </vehicle>
    <vehicle id="sedan_left1B0.14" type="sedan" depart="204.00">
        <route edges="left1B0 B0B1 B1B2 B2right1"/>
    </vehicle>
    <vehicle id="sedan_bottom2A2.22" type="sedan" depart="205.00">
        <route edges="bottom2A2 A2B2 B2right1"/>
    </vehicle>
    <vehicle id="sedan_right0A2.9" type="sedan" depart="206.00">
        <route edges="right0A2 A2bottom2"/>
    </vehicle>
    <vehicle id="sedan_bottom1A1.15" type="sedan" depart="207.00">
        <route edges="bottom1A1 A1A2 A2right0"/>
    </vehicle>
    <vehicle id="sedan_left2C0.17" type="sedan" depart="207.00">
        <route edges="left2C0 C0top0"/>
    </vehicle>
    <vehicle id="sedan_top1C1.16" type="sedan" depart="207.00">
        <route edges="top1C1 C1C0 C0left2"/>
    </vehicle>
    <vehicle id="sedan_right1B2.13" type="sedan" depart="208.00">
        <route edges="right1B2 B2A2 A2right0"/>
    </vehicle>
    <vehicle id="sedan_bottom0A0.15" type="sedan" depart="212.00">
        <route edges="bottom0A0 A0left0"/>
    </vehicle>
    <vehicle id="sedan_left1B0.15" type="sedan" depart="213.00">
        <route edges="left1B0 B0B1 B1B2 B2right1"/>
    </vehicle>
    <vehicle id="sedan_left2C0.18" type="sedan" depart="213.00">
        <route edges="left2C0 C0C1 C1C2 C2right2"/>
    </vehicle>
    <vehicle id="sedan_top0C0.15" type="sedan" depart="213.00">
        <route edges="top0C0 C0B0 B0A0 A0bottom0"/>
    </vehicle>
    <vehicle id="sedan_right0A2.10" type="sedan" depart="216.00">
        <route edges="right0A2 A2bottom2"/>
    </vehicle>
    <vehicle id="sedan_top2C2.11" type="sedan" depart="216.00">
        <route edges="top2C2 C2B2 B2A2 A2bottom2"/>
    </vehicle>
    <vehicle id="sedan_bottom0A0.16" type="sedan" depart="218.00">
        <route edges="bottom0A0 A0left0"/>
    </vehicle>
    <vehicle id="sedan_bottom0A0.17" type="sedan" depart="220.00">
        <route edges="bottom0A0 A0B0 B0left1"/>
    </vehicle>
    <vehicle id="sedan_left0A0.14" type="sedan" depart="222.00">
        <route edges="left0A0 A0A1 A1bottom1"/>
    </vehicle>
    <vehicle id="sedan_bottom2A2.23" type="sedan" depart="223.00">
        <route edges="bottom2A2 A2B2 B2C2 C2C1 C1C0 C0top0"/>
    </vehicle>
    <vehicle id="sedan_bottom0A0.18" type="sedan" depart="224.00">
        <route edges="bottom0A0 A0B0 B0B1 B1B2 B2A2 A2bottom2"/>
    </vehicle>
    <vehicle id="sedan_right2C2.15" type="sedan" depart="224.00">
        <route edges="right2C2 C2C1 C1C0 C0top0"/>
    </vehicle>
    <vehicle id="sedan_left2C0.19" type="sedan" depart="226.00">
        <route edges="left2C0 C0C1 C1C2 C2B2 B2A2 A2bottom2"/>
    </vehicle>
    <vehicle id="sedan_top0C0.16" type="sedan" depart="226.00">
        <route edges="top0C0 C0left2"/>
    </vehicle>
    <vehicle id="sedan_left0A0.15" type="sedan" depart="227.00">
        <route edges="left0A0 A0A1 A1B1 B1B2 B2C2 C2right2"/>
    </vehicle>
    <vehicle id="sedan_bottom1A1.16" type="sedan" depart="229.00">
        <route edges="bottom1A1 A1B1 B1B0 B0left1"/>
    </vehicle>
    <vehicle id="sedan_top0C0.17" type="sedan" depart="232.00">
        <route edges="top0C0 C0left2"/>
    </vehicle>
    <vehicle id="sedan_top1C1.17" type="sedan" depart="235.00">
        <route edges="top1C1 C1B1 B1A1 A1bottom1"/>
    </vehicle>
    <vehicle id="sedan_left2C0.20" type="sedan" depart="238.00">
        <route edges="left2C0 C0C1 C1C2 C2top2"/>
    </vehicle>
    <vehicle id="sedan_right1B2.14" type="sedan" depart="238.00">
        <route edges="right1B2 B2C2 C2C1 C1C0 C0top0"/>
    </vehicle>
    <vehicle id="sedan_right0A2.11" type="sedan" depart="239.00">
        <route edges="right0A2 A2bottom2"/>
    </vehicle>
    <vehicle id="sedan_top2C2.12" type="sedan" depart="240.00">
        <route edges="top2C2 C2right2"/>
    </vehicle>
    <vehicle id="sedan_right2C2.16" type="sedan" depart="241.00">
        <route edges="right2C2 C2C1 C1C0 C0left2"/>
    </vehicle>
    <vehicle id="sedan_top2C2.13" type="sedan" depart="242.00">
        <route edges="top2C2 C2B2 B2B1 B1A1 A1bottom1"/>
    </vehicle>
    <vehicle id="sedan_bottom0A0.19" type="sedan" depart="243.00">
        <route edges="bottom0A0 A0B0 B0C0 C0top0"/>
    </vehicle>
    <vehicle id="sedan_right2C2.17" type="sedan" depart="243.00">
        <route edges="right2C2 C2C1 C1C0 C0top0"/>
    </vehicle>
    <vehicle id="sedan_top2C2.14" type="sedan" depart="243.00">
        <route edges="top2C2 C2B2 B2B1 B1B0 B0left1"/>
    </vehicle>
    <vehicle id="sedan_top0C0.18" type="sedan" depart="246.00">
        <route edges="top0C0 C0B0 B0left1"/>
    </vehicle>
    <vehicle id="sedan_top1C1.18" type="sedan" depart="246.00">
        <route edges="top1C1 C1C0 C0left2"/>
    </vehicle>
    <vehicle id="sedan_right2C2.18" type="sedan" depart="249.00">
        <route edges="right2C2 C2C1 C1C0 C0left2"/>
    </vehicle>
    <vehicle id="sedan_right0A2.12" type="sedan" depart="251.00">
        <route edges="right0A2 A2B2 B2B1 B1B0 B0left1"/>
    </vehicle>
    <vehicle id="sedan_top0C0.19" type="sedan" depart="254.00">
        <route edges="top0C0 C0B0 B0A0 A0left0"/>
    </vehicle>
    <vehicle id="sedan_top0C0.20" type="sedan" depart="255.00">
        <route edges="top0C0 C0B0 B0A0 A0bottom0"/>
    </vehicle>
    <vehicle id="sedan_left2C0.21" type="sedan" depart="257.00">
        <route edges="left2C0 C0C1 C1C2 C2right2"/>
    </vehicle>
    <vehicle id="sedan_right1B2.15" type="sedan" depart="257.00">
        <route edges="right1B2 B2A2 A2bottom2"/>
    </vehicle>
    <vehicle id="sedan_bottom2A2.24" type="sedan" depart="258.00">
        <route edges="bottom2A2 A2A1 A1A0 A0bottom0"/>
    </vehicle>
    <vehicle id="sedan_top2C2.15" type="sedan" depart="262.00">