<?xml version="1.0" encoding="UTF-8"?>

<!-- generated on 2026-04-03T15:31:07.171284+08:00 by Eclipse SUMO jtrrouter 1.25.0
<jtrrouterConfiguration xmlns:xsi="http://www.w3.org/2001/XMLSchema-instance" xsi:noNamespaceSchemaLocation="http://sumo.dlr.de/xsd/jtrrouterConfiguration.xsd">

    <input>
        <net-file value="network/sim.net.xml"/>
        <route-files value="flows/suv.flow.xml"/>
        <turn-ratio-files value="turn.ratio.xml"/>
    </input>

    <output>
        <output-file value="routes/suv.rou.xml"/>
    </output>

    <processing>
        <sink-edges value="A0bottom0,A1bottom1,A2bottom2,C0top0,C1top1,C2top2,A0left0,B0left1,C0left2,A2right0,B2right1,C2right2"/>
    </processing>

    <time>
        <begin value="0"/>
        <end value="3600"/>
    </time>

    <random_number>
        <seed value="1"/>
    </random_number>

</jtrrouterConfiguration>
-->

<routes xmlns:xsi="http://www.w3.org/2001/XMLSchema-instance" xsi:noNamespaceSchemaLocation="http://sumo.dlr.de/xsd/routes_file.xsd">
    <vType id="suv" length="5.00" speedFactor="normc(0.95,0.10,0.20,2.00)" vClass="passenger" width="2.00" height="1.80" color="77,77,153" accel="2.2" decel="4.0" sigma="0.5"/>
    <vehicle id="suv_bottom1A1.0" type="suv" depart="3.00">
        <route edges="bottom1A1 A1B1 B1C1 C1top1"/>
    </vehicle>
    <vehicle id="suv_bottom0A0.0" type="suv" depart="4.00">
        <route edges="bottom0A0 A0B0 B0left1"/>
    </vehicle>
    <vehicle id="suv_left1B0.0" type="suv" depart="4.00">
        <route edges="left1B0 B0C0 C0top0"/>
    </vehicle>
    <vehicle id="suv_top2C2.0" type="suv" depart="4.00">
        <route edges="top2C2 C2right2"/>
    </vehicle>
    <vehicle id="suv_bottom2A2.0" type="suv" depart="5.00">
        <route edges="bottom2A2 A2B2 B2right1"/>
    </vehicle>
    <vehicle id="suv_right1B2.0" type="suv" depart="7.00">
        <route edges="right1B2 B2B1 B1A1 A1A2 A2right0"/>
    </vehicle>
    <vehicle id="suv_top0C0.0" type="suv" depart="7.00">
        <route edges="top0C0 C0top0"/>
    </vehicle>
    <vehicle id="suv_bottom1A1.1" type="suv" depart="12.00">
        <route edges="bottom1A1 A1B1 B1C1 C1top1"/>
    </vehicle>
    <vehicle id="suv_top1C1.0" type="suv" depart="12.00">
        <route edges="top1C1 C1top1"/>
    </vehicle>
    <vehicle id="suv_bottom2A2.1" type="suv" depart="13.00">
        <route edges="bottom2A2 A2right0"/>
    </vehicle>
    <vehicle id="suv_top1C1.1" type="suv" depart="16.00">
        <route edges="top1C1 C1B1 B1B2 B2A2 A2A1 A1A0 A0bottom0"/>
    </vehicle>
    <vehicle id="suv_top0C0.1" type="suv" depart="18.00">
        <route edges="top0C0 C0B0 B0left1"/>
    </vehicle>
    <vehicle id="suv_right2C2.0" type="suv" depart="20.00">
        <route edges="right2C2 C2C1 C1top1"/>
    </vehicle>
    <vehicle id="suv_top0C0.2" type="suv" depart="21.00">
        <route edges="top0C0 C0C1 C1C2 C2right2"/>
    </vehicle>
    <vehicle id="suv_bottom2A2.2" type="suv" depart="23.00">
        <route edges="bottom2A2 A2B2 B2right1"/>
    </vehicle>
    <vehicle id="suv_right0A2.0" type="suv" depart="25.00">
        <route edges="right0A2 A2bottom2"/>
    </vehicle>
    <vehicle id="suv_bottom0A0.1" type="suv" depart="28.00">
        <route edges="bottom0A0 A0left0"/>
    </vehicle>
    <vehicle id="suv_top1C1.2" type="suv" depart="28.00">
        <route edges="top1C1 C1C2 C2B2 B2A2 A2bottom2"/>
    </vehicle>
    <vehicle id="suv_bottom2A2.3" type="suv" depart="31.00">
        <route edges="bottom2A2 A2A1 A1A0 A0B0 B0C0 C0left2"/>
    </vehicle>
    <vehicle id="suv_bottom2A2.4" type="suv" depart="32.00">
        <route edges="bottom2A2 A2bottom2"/>
    </vehicle>
    <vehicle id="suv_top2C2.1" type="suv" depart="32.00">
        <route edges="top2C2 C2B2 B2A2 A2bottom2"/>
    </vehicle>
    <vehicle id="suv_left0A0.0" type="suv" depart="33.00">
        <route edges="left0A0 A0A1 A1A2 A2bottom2"/>
    </vehicle>
    <vehicle id="suv_bottom2A2.5" type="suv" depart="38.00">
        <route edges="bottom2A2 A2A1 A1bottom1"/>
    </vehicle>
    <vehicle id="suv_top2C2.2" type="suv" depart="38.00">
        <route edges="top2C2 C2C1 C1B1 B1B0 B0left1"/>
    </vehicle>
    <vehicle id="suv_left1B0.1" type="suv" depart="39.00">
        <route edges="left1B0 B0B1 B1A1 A1bottom1"/>
    </vehicle>
    <vehicle id="suv_bottom1A1.2" type="suv" depart="40.00">
        <route edges="bottom1A1 A1B1 B1C1 C1C2 C2C1 C1top1"/>
    </vehicle>
    <vehicle id="suv_bottom1A1.3" type="suv" depart="42.00">
        <route edges="bottom1A1 A1B1 B1B0 B0B1 B1A1 A1bottom1"/>
    </vehicle>
    <vehicle id="suv_top2C2.3" type="suv" depart="42.00">
        <route edges="top2C2 C2right2"/>
    </vehicle>
    <vehicle id="suv_right2C2.1" type="suv" depart="43.00">
        <route edges="right2C2 C2C1 C1C0 C0B0 B0A0 A0A1 A1A0 A0B0 B0C0 C0left2"/>
    </vehicle>
    <vehicle id="suv_bottom1A1.4" type="suv" depart="44.00">
        <route edges="bottom1A1 A1A0 A0bottom0"/>
    </vehicle>
    <vehicle id="suv_left1B0.2" type="suv" depart="44.00">
        <route edges="left1B0 B0B1 B1B2 B2right1"/>
    </vehicle>
    <vehicle id="suv_left2C0.0" type="suv" depart="50.00">
        <route edges="left2C0 C0B0 B0left1"/>
    </vehicle>
    <vehicle id="suv_top1C1.3" type="suv" depart="50.00">
        <route edges="top1C1 C1C0 C0left2"/>
    </vehicle>
    <vehicle id="suv_left1B0.3" type="suv" depart="52.00">
        <route edges="left1B0 B0B1 B1B2 B2A2 A2bottom2"/>
    </vehicle>
    <vehicle id="suv_bottom0A0.2" type="suv" depart="54.00">
        <route edges="bottom0A0 A0left0"/>
    </vehicle>
    <vehicle id="suv_bottom2A2.6" type="suv" depart="57.00">
        <route edges="bottom2A2 A2B2 B2C2 C2right2"/>
    </vehicle>
    <vehicle id="suv_top0C0.3" type="suv" depart="57.00">
        <route edges="top0C0 C0B0 B0A0 A0bottom0"/>
    </vehicle>
    <vehicle id="suv_top0C0.4" type="suv" depart="64.00">
        <route edges="top0C0 C0left2"/>
    </vehicle>
    <vehicle id="suv_bottom1A1.5" type="suv" depart="66.00">
        <route edges="bottom1A1 A1bottom1"/>
    </vehicle>
    <vehicle id="suv_left0A0.1" type="suv" depart="70.00">
        <route edges="left0A0 A0A1 A1bottom1"/>
    </vehicle>
    <vehicle id="suv_bottom2A2.7" type="suv" depart="72.00">
        <route edges="bottom2A2 A2B2 B2A2 A2bottom2"/>
    </vehicle>
    <vehicle id="suv_left1B0.4" type="suv" depart="74.00">
        <route edges="left1B0 B0A0 A0left0"/>
    </vehicle>
    <vehicle id="suv_bottom0A0.3" type="suv" depart="76.00">
        <route edges="bottom0A0 A0B0 B0C0 C0left2"/>
    </vehicle>
    <vehicle id="suv_left2C0.1" type="suv" depart="76.00">
        <route edges="left2C0 C0C1 C1B1 B1B0 B0C0 C0left2"/>
    </vehicle>
    <vehicle id="suv_bottom0A0.4" type="suv" depart="77.00">
        <route edges="bottom0A0 A0A1 A1A2 A2B2 B2right1"/>
    </vehicle>
    <vehicle id="suv_left1B0.5" type="suv" depart="77.00">
        <route edges="left1B0 B0B1 B1B2 B2right1"/>
    </vehicle>
    <vehicle id="suv_top0C0.5" type="suv" depart="77.00">
        <route edges="top0C0 C0B0 B0A0 A0bottom0"/>
    </vehicle>
    <vehicle id="suv_right1B2.1" type="suv" depart="78.00">
        <route edges="right1B2 B2B1 B1B0 B0left1"/>
    </vehicle>
    <vehicle id="suv_left0A0.2" type="suv" depart="79.00">
        <route edges="left0A0 A0B0 B0left1"/>
    </vehicle>
    <vehicle id="suv_left1B0.6" type="suv" depart="82.00">
        <route edges="left1B0 B0B1 B1B2 B2A2 A2bottom2"/>
    </vehicle>
    <vehicle id="suv_left1B0.7" type="suv" depart="86.00">
        <route edges="left1B0 B0C0 C0top0"/>
    </vehicle>
    <vehicle id="suv_right1B2.2" type="suv" depart="88.00">
        <route edges="right1B2 B2B1 B1B0 B0left1"/>
    </vehicle>
    <vehicle id="suv_right1B2.3" type="suv" depart="89.00">
        <route edges="right1B2 B2B1 B1B0 B0left1"/>
    </vehicle>
    <vehicle id="suv_left2C0.2" type="suv" depart="90.00">
        <route edges="left2C0 C0C1 C1top1"/>
    </vehicle>
    <vehicle id="suv_bottom2A2.8" type="suv" depart="93.00">
        <route edges="bottom2A2 A2B2 B2B1 B1B0 B0A0 A0A1 A1A2 A2bottom2"/>
    </vehicle>
    <vehicle id="suv_right2C2.2" type="suv" depart="93.00">
        <route edges="right2C2 C2C1 C1B1 B1A1 A1A2 A2right0"/>
    </vehicle>
    <vehicle id="suv_bottom1A1.6" type="suv" depart="95.00">
        <route edges="bottom1A1 A1B1 B1B0 B0left1"/>
    </vehicle>
    <vehicle id="suv_top1C1.4" type="suv" depart="95.00">
        <route edges="top1C1 C1B1 B1B0 B0left1"/>
    </vehicle>
    <vehicle id="suv_top0C0.6" type="suv" depart="96.00">
        <route edges="top0C0 C0B0 B0left1"/>
    </vehicle>
    <vehicle id="suv_bottom1A1.7" type="suv" depart="98.00">
        <route edges="bottom1A1 A1B1 B1C1 C1top1"/>
    </vehicle>
    <vehicle id="suv_left0A0.3" type="suv" depart="98.00">
        <route edges="left0A0 A0A1 A1A2 A2right0"/>
    </vehicle>
    <vehicle id="suv_bottom0A0.5" type="suv" depart="100.00">
        <route edges="bottom0A0 A0B0 B0B1 B1A1 A1A2 A2right0"/>
    </vehicle>
    <vehicle id="suv_bottom2A2.9" type="suv" depart="100.00">
        <route edges="bottom2A2 A2B2 B2right1"/>
    </vehicle>
    <vehicle id="suv_left2C0.3" type="suv" depart="103.00">
        <route edges="left2C0 C0B0 B0left1"/>
    </vehicle>
    <vehicle id="suv_top0C0.7" type="suv" depart="108.00">
        <route edges="top0C0 C0B0 B0A0 A0bottom0"/>
    </vehicle>
    <vehicle id="suv_right2C2.3" type="suv" depart="109.00">
        <route edges="right2C2 C2right2"/>
    </vehicle>
    <vehicle id="suv_left2C0.4" type="suv" depart="111.00">
        <route edges="left2C0 C0C1 C1C2 C2right2"/>
    </vehicle>
    <vehicle id="suv_right2C2.4" type="suv" depart="115.00">
        <route edges="right2C2 C2top2"/>
    </vehicle>
    <vehicle id="suv_top1C1.5" type="suv" depart="115.00">
        <route edges="top1C1 C1C0 C0left2"/>
    </vehicle>
    <vehicle id="suv_left2C0.5" type="suv" depart="120.00">
        <route edges="left2C0 C0C1 C1C2 C2top2"/>
    </vehicle>
    <vehicle id="suv_top2C2.4" type="suv" depart="121.00">
        <route edges="top2C2 C2right2"/>
    </vehicle>
    <vehicle id="suv_bottom2A2.10" type="suv" depart="123.00">
        <route edges="bottom2A2 A2B2 B2B1 B1A1 A1bottom1"/>
    </vehicle>
    <vehicle id="suv_left2C0.6" type="suv" depart="126.00">
        <route edges="left2C0 C0B0 B0A0 A0bottom0"/>
    </vehicle>
    <vehicle id="suv_top0C0.8" type="suv" depart="128.00">
        <route edges="top0C0 C0B0 B0A0 A0left0"/>
    </vehicle>
    <vehicle id="suv_bottom2A2.11" type="suv" depart="129.00">
        <route edges="bottom2A2 A2B2 B2C2 C2C1 C1C0 C0top0"/>
    </vehicle>
    <vehicle id="suv_bottom1A1.8" type="suv" depart="130.00">
        <route edges="bottom1A1 A1B1 B1C1 C1top1"/>
    </vehicle>
    <vehicle id="suv_right1B2.4" type="suv" depart="130.00">
        <route edges="right1B2 B2A2 A2bottom2"/>
    </vehicle>
    <vehicle id="suv_bottom1A1.9" type="suv" depart="133.00">
        <route edges="bottom1A1 A1B1 B1C1 C1C2 C2right2"/>
    </vehicle>
    <vehicle id="suv_right1B2.5" type="suv" depart="135.00">
        <route edges="right1B2 B2A2 A2A1 A1A0 A0bottom0"/>
    </vehicle>
    <vehicle id="suv_bottom0A0.6" type="suv" depart="137.00">
        <route edges="bottom0A0 A0B0 B0C0 C0C1 C1C0 C0left2"/>
    </vehicle>
    <vehicle id="suv_right1B2.6" type="suv" depart="137.00">
        <route edges="right1B2 B2C2 C2top2"/>
    </vehicle>
    <vehicle id="suv_left2C0.7" type="suv" depart="138.00">
        <route edges="left2C0 C0C1 C1C2 C2right2"/>
    </vehicle>
    <vehicle id="suv_right0A2.1" type="suv" depart="138.00">
        <route edges="right0A2 A2A1 A1B1 B1C1 C1top1"/>
    </vehicle>
    <vehicle id="suv_bottom2A2.12" type="suv" depart="139.00">
        <route edges="bottom2A2 A2B2 B2C2 C2right2"/>
    </vehicle>
    <vehicle id="suv_left0A0.4" type="suv" depart="142.00">
        <route edges="left0A0 A0bottom0"/>
    </vehicle>
    <vehicle id="suv_top2C2.5" type="suv" depart="146.00">
        <route edges="top2C2 C2C1 C1top1"/>
    </vehicle>
    <vehicle id="suv_left0A0.5" type="suv" depart="148.00">
        <route edges="left0A0 A0bottom0"/>
    </vehicle>
    <vehicle id="suv_left1B0.8" type="suv" depart="150.00">
        <route edges="left1B0 B0B1 B1B2 B2C2 C2top2"/>
    </vehicle>
    <vehicle id="suv_right0A2.2" type="suv" depart="154.00">
        <route edges="right0A2 A2A1 A1A0 A0left0"/>
    </vehicle>
    <vehicle id="suv_bottom2A2.13" type="suv" depart="155.00">
        <route edges="bottom2A2 A2B2 B2B1 B1B0 B0left1"/>
    </vehicle>
    <vehicle id="suv_left1B0.9" type="suv" depart="156.00">
        <route edges="left1B0 B0B1 B1A1 A1bottom1"/>
    </vehicle>
    <vehicle id="suv_bottom2A2.14" type="suv" depart="159.00">
        <route edges="bottom2A2 A2B2 B2right1"/>
    </vehicle>
    <vehicle id="suv_left2C0.8" type="suv" depart="161.00">
        <route edges="left2C0 C0C1 C1C2 C2B2 B2right1"/>
    </vehicle>
    <vehicle id="suv_right2C2.5" type="suv" depart="163.00">
        <route edges="right2C2 C2C1 C1C0 C0left2"/>
    </vehicle>
    <vehicle id="suv_right0A2.3" type="suv" depart="165.00">
        <route edges="right0A2 A2A1 A1A0 A0B0 B0C0 C0left2"/>
    </vehicle>
    <vehicle id="suv_bottom2A2.15" type="suv" depart="167.00">
        <route edges="bottom2A2 A2B2 B2C2 C2right2"/>
    </vehicle>
    <vehicle id="suv_left1B0.10" type="suv" depart="174.00">
        <route edges="left1B0 B0B1 B1B2 B2right1"/>
    </vehicle>
    <vehicle id="suv_right2C2.6" type="suv" depart="174.00">
        <route edges="right2C2 C2C1 C1C0 C0left2"/>
    </vehicle>
    <vehicle id="suv_bottom0A0.7" type="suv" depart="175.00">
        <route edges="bottom0A0 A0B0 B0C0 C0C1 C1C2 C2right2"/>
    </vehicle>
    <vehicle id="suv_left2C0.9" type="suv" depart="175.00">
        <route edges="left2C0 C0C1 C1C2 C2top2"/>
    </vehicle>
    <vehicle id="suv_right2C2.7" type="suv" depart="177.00">
        <route edges="right2C2 C2C1 C1C0 C0left2"/>
    </vehicle>
    <vehicle id="suv_right0A2.4" type="suv" depart="180.00">
        <route edges="right0A2 A2right0"/>
    </vehicle>
    <vehicle id="suv_right1B2.7" type="suv" depart="181.00">
        <route edges="right1B2 B2B1 B1B0 B0left1"/>
    </vehicle>
    <vehicle id="suv_right2C2.8" type="suv" depart="181.00">
        <route edges="right2C2 C2C1 C1C0 C0B0 B0A0 A0bottom0"/>
    </vehicle>
    <vehicle id="suv_bottom2A2.16" type="suv" depart="183.00">
        <route edges="bottom2A2 A2A1 A1A0 A0B0 B0A0 A0left0"/>
    </vehicle>
    <vehicle id="suv_right1B2.8" type="suv" depart="185.00">
        <route edges="right1B2 B2B1 B1B0 B0left1"/>
    </vehicle>
    <vehicle id="suv_left0A0.6" type="suv" depart="186.00">
        <route edges="left0A0 A0A1 A1B1 B1C1 C1C0 C0left2"/>
    </vehicle>
    <vehicle id="suv_bottom1A1.10" type="suv" depart="192.00">
        <route edges="bottom1A1 A1B1 B1C1 C1top1"/>
    </vehicle>
    <vehicle id="suv_bottom0A0.8" type="suv" depart="196.00">
        <route edges="bottom0A0 A0B0 B0C0 C0top0"/>
    </vehicle>
    <vehicle id="suv_left2C0.10" type="suv" depart="196.00">
        <route edges="left2C0 C0top0"/>
    </vehicle>
    <vehicle id="suv_top0C0.9" type="suv" depart="199.00">
        <route edges="top0C0 C0B0 B0A0 A0bottom0"/>
    </vehicle>
    <vehicle id="suv_bottom1A1.11" type="suv" depart="200.00">
        <route edges="bottom1A1 A1A2 A2right0"/>
    </vehicle>
    <vehicle id="suv_left2C0.11" type="suv" depart="201.00">
        <route edges="left2C0 C0top0"/>
    </vehicle>
    <vehicle id="suv_right1B2.9" type="suv" depart="204.00">
        <route edges="right1B2 B2B1 B1A1 A1bottom1"/>
    </vehicle>
    <vehicle id="suv_bottom1A1.12" type="suv" depart="208.00">
        <route edges="bottom1A1 A1A0 A0bottom0"/>
    </vehicle>
    <vehicle id="suv_left0A0.7" type="suv" depart="211.00">
        <route edges="left0A0 A0A1 A1A2 A2bottom2"/>
    </vehicle>
    <vehicle id="suv_top0C0.10" type="suv" depart="212.00">
        <route edges="top0C0 C0B0 B0A0 A0bottom0"/>
    </vehicle>
    <vehicle id="suv_top1C1.6" type="suv" depart="214.00">
        <route edges="top1C1 C1B1 B1A1 A1A0 A0B0 B0C0 C0top0"/>
    </vehicle>
    <vehicle id="suv_left1B0.11" type="suv" depart="215.00">
        <route edges="left1B0 B0C0 C0top0"/>
    </vehicle>
    <vehicle id="suv_bottom2A2.17" type="suv" depart="217.00">
        <route edges="bottom2A2 A2B2 B2right1"/>
    </vehicle>
    <vehicle id="suv_top1C1.7" type="suv" depart="220.00">
        <route edges="top1C1 C1C0 C0top0"/>
    </vehicle>
    <vehicle id="suv_bottom0A0.9" type="suv" depart="222.00">
        <route edges="bottom0A0 A0B0 B0left1"/>
    </vehicle>
    <vehicle id="suv_right2C2.9" type="suv" depart="226.00">
        <route edges="right2C2 C2B2 B2A2 A2A1 A1A0 A0B0 B0B1 B1B2 B2right1"/>
    </vehicle>
    <vehicle id="suv_top0C0.11" type="suv" depart="229.00">
        <route edges="top0C0 C0C1 C1top1"/>
    </vehicle>
    <vehicle id="suv_bottom1A1.13" type="suv" depart="231.00">
        <route edges="bottom1A1 A1B1 B1B2 B2C2 C2right2"/>
    </vehicle>
    <vehicle id="suv_top0C0.12" type="suv" depart="231.00">
        <route edges="top0C0 C0B0 B0A0 A0bottom0"/>
    </vehicle>
    <vehicle id="suv_top1C1.8" type="suv" depart="234.00">
        <route edges="top1C1 C1B1 B1B2 B2B1 B1B0 B0left1"/>
    </vehicle>
    <vehicle id="suv_right1B2.10" type="suv" depart="239.00">
        <route edges="right1B2 B2A2 A2A1 A1A0 A0B0 B0C0 C0top0"/>
    </vehicle>
    <vehicle id="suv_top1C1.9" type="suv" depart="242.00">
        <route edges="top1C1 C1B1 B1A1 A1bottom1"/>
    </vehicle>
    <vehicle id="suv_top1C1.10" type="suv" depart="243.00">
        <route edges="top1C1 C1C0 C0left2"/>
    </vehicle>
    <vehicle id="suv_bottom0A0.10" type="suv" depart="244.00">
        <route edges="bottom0A0 A0B0 B0left1"/>
    </vehicle>
    <vehicle id="suv_bottom0A0.11" type="suv" depart="245.00">
        <route edges="bottom0A0 A0left0"/>
    </vehicle>
    <vehicle id="suv_right2C2.10" type="suv" depart="245.00">
        <route edges="right2C2 C2C1 C1B1 B1A1 A1A0 A0bottom0"/>
    </vehicle>
    <vehicle id="suv_left0A0.8" type="suv" depart="246.00">
        <route edges="left0A0 A0bottom0"/>
    </vehicle>
    <vehicle id="suv_bottom0A0.12" type="suv" depart="247.00">
        <route edges="bottom0A0 A0B0 B0C0 C0B0 B0A0 A0bottom0"/>
    </vehicle>
    <vehicle id="suv_bottom0A0.13" type="suv" depart="250.00">
        <route edges="bottom0A0 A0B0 B0C0 C0C1 C1C2 C2top2"/>
    </vehicle>
    <vehicle id="suv_left1B0.12" type="suv" depart="251.00">
        <route edges="left1B0 B0A0 A0bottom0"/>
    </vehicle>
    <vehicle id="suv_right0A2.5" type="suv" depart="251.00">
        <route edges="right0A2 A2A1 A1A0 A0left0"/>
    </vehicle>
    <vehicle id="suv_right1B2.11" type="suv" depart="251.00">
        <route edges="right1B2 B2C2 C2top2"/>
    </vehicle>
    <vehicle id="suv_left1B0.13" type="suv" depart="255.00">
        <route edges="left1B0 B0B1 B1B2 B2A2 A2bottom2"/>
    </vehicle>
    <vehicle id="suv_left0A0.9" type="suv" depart="258.00">
        <route edges="left0A0 A0bottom0"/>
    </vehicle>
    <vehicle id="suv_left2C0.12" type="suv" depart="258.00">
        <route edges="left2C0 C0C1 C1B1 B1A1 A1B1 B1B0 B0left1"/>
    </vehicle>
    <vehicle id="suv_right2C2.11" type="suv" depart="258.00">
        <route edges="right2C2 C2C1 C1C0 C0left2"/>
    </vehicle>
    <vehicle id="suv_top0C0.13" type="suv" depart="260.00">
        <route edges="top0C0 C0left2"/>
    </vehicle>
    <vehicle id="suv_bottom0A0.14" type="suv" depart="261.00">
        <route edges="bottom0A0 A0B0 B0C0 C0left2"/>
    </vehicle>
    <vehicle id="suv_left1B0.14" type="suv" depart="261.00">
        <route edges="left1B0 B0B1 B1B2 B2right1"/>
    </vehicle>
    <vehicle id="suv_bottom2A2.18" type="suv" depart="263.00">
        <route edges="bottom2A2 A2A1 A1A0 A0left0"/>
    </vehicle>
    <vehicle id="suv_top0C0.14" type="suv" depart="264.00">
        <route edges="top0C0 C0B0 B0A0 A0left0"/>
    </vehicle>
    <vehicle id="suv_right2C2.12" type="suv" depart="266.00">
        <route edges="right2C2 C2C1 C1C0 C0left2"/>
    </vehicle>
    <vehicle id="suv_top1C1.11" type="suv" depart="266.00">
        <route edges="top1C1 C1C2 C2top2"/>
    </vehicle>
    <vehicle id="suv_top1C1.12" type="suv" depart="268.00">
        <route edges="top1C1 C1B1 B1B0 B0A0 A0bottom0"/>
    </vehicle>
    <vehicle id="suv_right0A2.6" type="suv" depart="270.00">
        <route edges="right0A2 A2B2 B2C2 C2C1 C1C0 C0left2"/>
    </vehicle>
    <vehicle id="suv_left0A0.10" type="suv" depart="271.00">
        <route edges="left0A0 A0bottom0"/>
    </vehicle>
    <vehicle id="suv_bottom2A2.19" type="suv" depart="274.00">
        <route edges="bottom2A2 A2B2 B2C2 C2top2"/>
    </vehicle>
    <vehicle id="suv_left0A0.11" type="suv" depart="282.00">
        <route edges="left0A0 A0A1 A1B1 B1C1 C1top1"/>
    </vehicle>
    <vehicle id="suv_left1B0.15" type="suv" depart="286.00">
        <route edges="left1B0 B0B1 B1B2 B2C2 C2top2"/>
    </vehicle>
    <vehicle id="suv_right1B2.12" type="suv" depart="287.00">
        <route edges="right1B2 B2B1 B1B0 B0A0 A0left0"/>
    </vehicle>
    <vehicle id="suv_bottom1A1.14" type="suv" depart="289.00">
        <route edges="bottom1A1 A1B1 B1B0 B0left1"/>
    </vehicle>
    <vehicle id="suv_bottom2A2.20" type="suv" depart="290.00">
        <route edges="bottom2A2 A2B2 B2C2 C2right2"/>
    </vehicle>
    <vehicle id="suv_top2C2.6" type="suv" depart="293.00">
        <route edges="top2C2 C2B2 B2right1"/>
    </vehicle>
    <vehicle id="suv_bottom2A2.21" type="suv" depart="304.00">
        <route edges="bottom2A2 A2B2 B2C2 C2top2"/>
    </vehicle>
    <vehicle id="suv_top1C1.13" type="suv" depart="305.00">
        <route edges="top1C1 C1B1 B1B2 B2A2 A2bottom2"/>
    </vehicle>
    <vehicle id="suv_bottom0A0.15" type="suv" depart="310.00">
        <route edges="bottom0A0 A0A1 A1A2 A2B2 B2B1 B1B0 B0left1"/>
    </vehicle>
    <vehicle id="suv_left2C0.13" type="suv" depart="313.00">
        <route edges="left2C0 C0C1 C1B1 B1A1 A1bottom1"/>
    </vehicle>
    <vehicle id="suv_top0C0.15" type="suv" depart="313.00">
        <route edges="top0C0 C0C1 C1C2 C2top2"/>
    </vehicle>
    <vehicle id="suv_top1C1.14" type="suv" depart="313.00">
        <route edges="top1C1 C1B1 B1A1 A1bottom1"/>
    </vehicle>
    <vehicle id="suv_bottom0A0.16" type="suv" depart="314.00">
        <route edges="bottom0A0 A0B0 B0C0 C0top0"/>
    </vehicle>
    <vehicle id="suv_top1C1.15" type="suv" depart="314.00">
        <route edges="top1C1 C1B1 B1B2 B2right1"/>
    </vehicle>
    <vehicle id="suv_left0A0.12" type="suv" depart="316.00">
        <route edges="left0A0 A0bottom0"/>
    </vehicle>
    <vehicle id="suv_top1C1.16" type="suv" depart="316.00">
        <route edges="top1C1 C1B1 B1A1 A1bottom1"/>
    </vehicle>
    <vehicle id="suv_left1B0.16" type="suv" depart="320.00">
        <route edges="left1B0 B0C0 C0top0"/>
    </vehicle>
    <vehicle id="suv_left2C0.14" type="suv" depart="324.00">
        <route edges="left2C0 C0C1 C1C2 C2right2"/>
    </vehicle>
    <vehicle id="suv_right2C2.13" type="suv" depart="324.00">
        <route edges="right2C2 C2C1 C1C0 C0B0 B0A0 A0bottom0"/>
    </vehicle>
    <vehicle id="suv_right0A2.7" type="suv" depart="325.00">
        <route edges="right0A2 A2A1 A1A0 A0left0"/>
    </vehicle>
    <vehicle id="suv_top1C1.17" type="suv" depart="326.00">
        <route edges="top1C1 C1B1 B1A1 A1bottom1"/>
    </vehicle>
    <vehicle id="suv_right0A2.8" type="suv" depart="327.00">
        <route edges="right0A2 A2A1 A1B1 B1C1 C1C2 C2right2"/>
    </vehicle>
    <vehicle id="suv_bottom1A1.15" type="suv" depart="328.00">
        <route edges="bottom1A1 A1B1 B1C1 C1C2 C2B2 B2right1"/>
    </vehicle>
    <vehicle id="suv_right2C2.14" type="suv" depart="330.00">
        <route edges="right2C2 C2top2"/>
    </vehicle>
    <vehicle id="suv_bottom1A1.16" type="suv" depart="332.00">
        <route edges="bottom1A1 A1B1 B1B2 B2right1"/>
    </vehicle>
    <vehicle id="suv_top0C0.16" type="suv" depart="332.00">
        <route edges="top0C0 C0C1 C1C2 C2right2"/>
    </vehicle>
    <vehicle id="suv_right1B2.13" type="suv" depart="338.00">
        <route edges="right1B2 B2B1 B1A1 A1A2 A2right0"/>
    </vehicle>
    <vehicle id="suv_bottom0A0.17" type="suv" depart="341.00">
        <route edges="bottom0A0 A0A1 A1A2 A2bottom2"/>
    </vehicle>
    <vehicle id="suv_bottom1A1.17" type="suv" depart="347.00">
        <route edges="bottom1A1 A1B1 B1B0 B0left1"/>
    </vehicle>
    <vehicle id="suv_bottom2A2.22" type="suv" depart="347.00">
        <route edges="bottom2A2 A2A1 A1bottom1"/>
    </vehicle>
    <vehicle id="suv_left2C0.15" type="suv" depart="349.00">
        <route edges="left2C0 C0C1 C1C2 C2B2 B2A2 A2right0"/>
    </vehicle>
    <vehicle id="suv_right0A2.9" type="suv" depart="350.00">
        <route edges="right0A2 A2B2 B2B1 B1B2 B2A2 A2bottom2"/>
    </vehicle>
    <vehicle id="suv_left0A0.13" type="suv" depart="352.00">
        <route edges="left0A0 A0B0 B0C0 C0top0"/>
    </vehicle>
    <vehicle id="suv_bottom2A2.23" type="suv" depart="353.00">
        <route edges="bottom2A2 A2B2 B2B1 B1A1 A1A0 A0bottom0"/>
    </vehicle>
    <vehicle id="suv_top1C1.18" type="suv" depart="355.00">
        <route edges="top1C1 C1C2 C2B2 B2B1 B1B0 B0C0 C0C1 C1C0 C0left2"/>
    </vehicle>
    <vehicle id="suv_top1C1.19" type="suv" depart="359.00">
        <route edges="top1C1 C1B1 B1B2 B2C2 C2right2"/>
    </vehicle>
    <vehicle id="suv_bottom1A1.18" type="suv" depart="360.00">
        <route edges="bottom1A1 A1B1 B1B2 B2right1"/>
    </vehicle>
    <vehicle id="suv_right2C2.15" type="suv" depart="363.00">
        <route edges="right2C2 C2top2"/>
    </vehicle>
    <vehicle id="suv_top0C0.17" type="suv" depart="363.00">
        <route edges="top0C0 C0left2"/>
    </vehicle>
    <vehicle id="suv_right1B2.14" type="suv" depart="366.00">
        <route edges="right1B2 B2A2 A2bottom2"/>
    </vehicle>
    <vehicle id="suv_top1C1.20" type="suv" depart="367.00">
        <route edges="top1C1 C1C2 C2top2"/>
    </vehicle>
    <vehicle id="suv_bottom1A1.19" type="suv" depart="370.00">
        <route edges="bottom1A1 A1B1 B1C1 C1top1"/>
    </vehicle>
    <vehicle id="suv_left1B0.17" type="suv" depart="371.00">
        <route edges="left1B0 B0B1 B1A1 A1bottom1"/>
    </vehicle>
    <vehicle id="suv_right2C2.16" type="suv" depart="371.00">
        <route edges="right2C2 C2C1 C1C0 C0left2"/>
    </vehicle>
    <vehicle id="suv_right1B2.15" type="suv" depart="375.00">
        <route edges="right1B2 B2B1 B1C1 C1top1"/>
    </vehicle>
    <vehicle id="suv_top2C2.7" type="suv" depart="381.00">
        <route edges="top2C2 C2B2 B2right1"/>
    </vehicle>
    <vehicle id="suv_left1B0.18" type="suv" depart="386.00">
        <route edges="left1B0 B0B1 B1B2 B2right1"/>
    </vehicle>
    <vehicle id="suv_right1B2.16" type="suv" depart="386.00">
        <route edges="right1B2 B2C2 C2right2"/>
    </vehicle>
    <vehicle id="suv_left2C0.16" type="suv" depart="387.00">
        <route edges="left2C0 C0top0"/>
    </vehicle>
    <vehicle id="suv_left0A0.14" type="suv" depart="388.00">
        <route edges="left0A0 A0B0 B0B1 B1B2 B2B1 B1B0 B0left1"/>
    </vehicle>
    <vehicle id="suv_right1B2.17" type="suv" depart="391.00">
        <route edges="right1B2 B2B1 B1B0 B0left1"/>
    </vehicle>
    <vehicle id="suv_bottom0A0.18" type="suv" depart="392.00">
        <route edges="bottom0A0 A0B0 B0C0 C0top0"/>
    </vehicle>
    <vehicle id="suv_left2C0.17" type="suv" depart="395.00">
        <route edges="left2C0 C0B0 B0A0 A0bottom0"/>
    </vehicle>
    <vehicle id="suv_top1C1.21" type="suv" depart="395.00">
        <route edges="top1C1 C1B1 B1B2 B2right1"/>
    </vehicle>
    <vehicle id="suv_top1C1.22" type="suv" depart="401.00">
        <route edges="top1C1 C1B1 B1B0 B0C0 C0top0"/>
    </vehicle>
    <vehicle id="suv_left0A0.15" type="suv" depart="407.00">
        <route edges="left0A0 A0bottom0"/>
    </vehicle>
    <vehicle id="suv_right0A2.10" type="suv" depart="407.00">
        <route edges="right0A2 A2bottom2"/>
    </vehicle>
    <vehicle id="suv_bottom0A0.19" type="suv" depart="415.00">
        <route edges="bottom0A0 A0left0"/>
    </vehicle>
    <vehicle id="suv_bottom1A1.20" type="suv" depart="415.00">
        <route edges="bottom1A1 A1B1 B1C1 C1C0 C0left2"/>
    </vehicle>
    <vehicle id="suv_left1B0.19" type="suv" depart="417.00">
        <route edges="left1B0 B0B1 B1B2 B2right1"/>
    </vehicle>
    <vehicle id="suv_right0A2.11" type="suv" depart="420.00">
        <route edges="right0A2 A2B2 B2B1 B1B0 B0A0 A0bottom0"/>
    </vehicle>
    <vehicle id="suv_top1C1.23" type="suv" depart="422.00">
        <route edges="top1C1 C1B1 B1A1 A1bottom1"/>
    </vehicle>
    <vehicle id="suv_bottom2A2.24" type="suv" depart="423.00">
        <route edges="bottom2A2 A2B2 B2right1"/>
    </vehicle>
    <vehicle id="suv_left1B0.20" type="suv" depart="423.00">
        <route edges="left1B0 B0A0 A0left0"/>
    </vehicle>
    <vehicle id="suv_right2C2.17" type="suv" depart="424.00">
        <route edges="right2C2 C2C1 C1C0 C0left2"/>
    </vehicle>
    <vehicle id="suv_top0C0.18" type="suv" depart="424.00">
        <route edges="top0C0 C0B0 B0A0 A0bottom0"/>
    </vehicle>
    <vehicle id="suv_left2C0.18" type="suv" depart="425.00">
        <route edges="left2C0 C0C1 C1C0 C0left2"/>
    </vehicle>
    <vehicle id="suv_right2C2.18" type="suv" depart="425.00">
        <route edges="right2C2 C2right2"/>
    </vehicle>
    <vehicle id="suv_bottom0A0.20" type="suv" depart="426.00">
        <route edges="bottom0A0 A0A1 A1A2 A2right0"/>
    </vehicle>
    <vehicle id="suv_left2C0.19" type="suv" depart="429.00">
        <route edges="left2C0 C0C1 C1C2 C2top2"/>
    </vehicle>
    <vehicle id="suv_left1B0.21" type="suv" depart="431.00">
        <route edges="left1B0 B0A0 A0bottom0"/>
    </vehicle>