<?xml version="1.0" encoding="UTF-8"?>

<!-- generated on 2026-04-03T15:31:07.358996+08:00 by Eclipse SUMO jtrrouter 1.25.0
<jtrrouterConfiguration xmlns:xsi="http://www.w3.org/2001/XMLSchema-instance" xsi:noNamespaceSchemaLocation="http://sumo.dlr.de/xsd/jtrrouterConfiguration.xsd">

    <input>
        <net-file value="network/sim.net.xml"/>
        <route-files value="flows/truck.flow.xml"/>
        <turn-ratio-files value="turn.ratio.xml"/>
    </input>

    <output>
        <output-file value="routes/truck.rou.xml"/>
    </output>

    <processing>
        <sink-edges value="A0bottom0,A1bottom1,A2bottom2,C0top0,C1top1,C2top2,A0left0,B0left1,C0left2,A2right0,B2right1,C2right2"/>
    </processing>

    <time>
        <begin value="0"/>
        <end value="3600"/>
    </time>

    <random_number>
        <seed value="1"/>
    </random_number>

</jtrrouterConfiguration>
-->

<routes xmlns:xsi="http://www.w3.org/2001/XMLSchema-instance" xsi:noNamespaceSchemaLocation="http://sumo.dlr.de/xsd/routes_file.xsd">
    <vType id="truck" length="8.00" speedFactor="normc(0.85,0.08,0.20,2.00)" vClass="truck" width="2.50" height="3.00" color="153,102,51" accel="1.3" decel="3.5" sigma="0.3"/>
    <vehicle id="truck_bottom1A1.0" type="truck" depart="3.00">
        <route edges="bottom1A1 A1B1 B1C1 C1top1"/>
    </vehicle>
    <vehicle id="truck_bottom0A0.0" type="truck" depart="4.00">
        <route edges="bottom0A0 A0B0 B0left1"/>
    </vehicle>
    <vehicle id="truck_top2C2.0" type="truck" depart="4.00">
        <route edges="top2C2 C2right2"/>
    </vehicle>
    <vehicle id="truck_bottom2A2.0" type="truck" depart="5.00">
        <route edges="bottom2A2 A2B2 B2right1"/>
    </vehicle>
    <vehicle id="truck_top0C0.0" type="truck" depart="7.00">
        <route edges="top0C0 C0B0 B0left1"/>
    </vehicle>
    <vehicle id="truck_top0C0.1" type="truck" depart="21.00">
        <route edges="top0C0 C0B0 B0A0 A0bottom0"/>
    </vehicle>
    <vehicle id="truck_bottom2A2.1" type="truck" depart="31.00">
        <route edges="bottom2A2 A2right0"/>
    </vehicle>
    <vehicle id="truck_left0A0.0" type="truck" depart="33.00">
        <route edges="left0A0 A0left0"/>
    </vehicle>
    <vehicle id="truck_left1B0.0" type="truck" depart="39.00">
        <route edges="left1B0 B0C0 C0left2"/>
    </vehicle>
    <vehicle id="truck_top0C0.2" type="truck" depart="57.00">
        <route edges="top0C0 C0B0 B0left1"/>
    </vehicle>
    <vehicle id="truck_left2C0.0" type="truck" depart="76.00">
        <route edges="left2C0 C0top0"/>
    </vehicle>
    <vehicle id="truck_top0C0.3" type="truck" depart="77.00">
        <route edges="top0C0 C0B0 B0B1 B1A1 A1A0 A0B0 B0C0 C0left2"/>
    </vehicle>
    <vehicle id="truck_right1B2.0" type="truck" depart="78.00">
        <route edges="right1B2 B2C2 C2C1 C1top1"/>
    </vehicle>
    <vehicle id="truck_left0A0.1" type="truck" depart="79.00">
        <route edges="left0A0 A0B0 B0C0 C0left2"/>
    </vehicle>
    <vehicle id="truck_left1B0.1" type="truck" depart="82.00">
        <route edges="left1B0 B0B1 B1C1 C1top1"/>
    </vehicle>
    <vehicle id="truck_left1B0.2" type="truck" depart="86.00">
        <route edges="left1B0 B0C0 C0top0"/>
    </vehicle>
    <vehicle id="truck_right1B2.1" type="truck" depart="88.00">
        <route edges="right1B2 B2B1 B1A1 A1B1 B1B0 B0C0 C0C1 C1C2 C2right2"/>
    </vehicle>
    <vehicle id="truck_right1B2.2" type="truck" depart="89.00">
        <route edges="right1B2 B2C2 C2C1 C1C0 C0left2"/>
    </vehicle>
    <vehicle id="truck_left2C0.1" type="truck" depart="90.00">
        <route edges="left2C0 C0C1 C1C2 C2right2"/>
    </vehicle>
    <vehicle id="truck_right2C2.0" type="truck" depart="93.00">
        <route edges="right2C2 C2B2 B2right1"/>
    </vehicle>
    <vehicle id="truck_bottom2A2.2" type="truck" depart="100.00">
        <route edges="bottom2A2 A2B2 B2A2 A2bottom2"/>
    </vehicle>
    <vehicle id="truck_right2C2.1" type="truck" depart="109.00">
        <route edges="right2C2 C2top2"/>
    </vehicle>
    <vehicle id="truck_right2C2.2" type="truck" depart="115.00">
        <route edges="right2C2 C2C1 C1B1 B1A1 A1bottom1"/>
    </vehicle>
    <vehicle id="truck_top1C1.0" type="truck" depart="115.00">
        <route edges="top1C1 C1C2 C2right2"/>
    </vehicle>
    <vehicle id="truck_left2C0.2" type="truck" depart="126.00">
        <route edges="left2C0 C0C1 C1top1"/>
    </vehicle>
    <vehicle id="truck_bottom2A2.3" type="truck" depart="129.00">
        <route edges="bottom2A2 A2B2 B2B1 B1B0 B0A0 A0bottom0"/>
    </vehicle>
    <vehicle id="truck_right1B2.3" type="truck" depart="135.00">
        <route edges="right1B2 B2C2 C2right2"/>
    </vehicle>
    <vehicle id="truck_left2C0.3" type="truck" depart="138.00">
        <route edges="left2C0 C0C1 C1B1 B1A1 A1A0 A0A1 A1A2 A2B2 B2C2 C2C1 C1C0 C0left2"/>
    </vehicle>
    <vehicle id="truck_right0A2.0" type="truck" depart="154.00">
        <route edges="right0A2 A2B2 B2right1"/>
    </vehicle>
    <vehicle id="truck_bottom2A2.4" type="truck" depart="155.00">
        <route edges="bottom2A2 A2A1 A1bottom1"/>
    </vehicle>
    <vehicle id="truck_left2C0.4" type="truck" depart="161.00">
        <route edges="left2C0 C0C1 C1C2 C2right2"/>
    </vehicle>
    <vehicle id="truck_right2C2.3" type="truck" depart="163.00">
        <route edges="right2C2 C2C1 C1B1 B1B2 B2right1"/>
    </vehicle>
    <vehicle id="truck_left1B0.3" type="truck" depart="174.00">
        <route edges="left1B0 B0B1 B1B2 B2C2 C2right2"/>
    </vehicle>
    <vehicle id="truck_bottom0A0.1" type="truck" depart="175.00">
        <route edges="bottom0A0 A0B0 B0C0 C0top0"/>
    </vehicle>
    <vehicle id="truck_right0A2.1" type="truck" depart="180.00">
        <route edges="right0A2 A2right0"/>
    </vehicle>
    <vehicle id="truck_right1B2.4" type="truck" depart="181.00">
        <route edges="right1B2 B2B1 B1B0 B0left1"/>
    </vehicle>
    <vehicle id="truck_right2C2.4" type="truck" depart="181.00">
        <route edges="right2C2 C2B2 B2A2 A2A1 A1bottom1"/>
    </vehicle>
    <vehicle id="truck_bottom0A0.2" type="truck" depart="196.00">
        <route edges="bottom0A0 A0B0 B0C0 C0left2"/>
    </vehicle>
    <vehicle id="truck_right1B2.5" type="truck" depart="207.00">
        <route edges="right1B2 B2C2 C2right2"/>
    </vehicle>
    <vehicle id="truck_bottom2A2.5" type="truck" depart="212.00">
        <route edges="bottom2A2 A2right0"/>
    </vehicle>
    <vehicle id="truck_right0A2.2" type="truck" depart="213.00">
        <route edges="right0A2 A2right0"/>
    </vehicle>
    <vehicle id="truck_bottom2A2.6" type="truck" depart="220.00">
        <route edges="bottom2A2 A2B2 B2B1 B1B0 B0A0 A0bottom0"/>
    </vehicle>
    <vehicle id="truck_left1B0.4" type="truck" depart="223.00">
        <route edges="left1B0 B0B1 B1B2 B2C2 C2right2"/>
    </vehicle>
    <vehicle id="truck_top1C1.1" type="truck" depart="224.00">
        <route edges="top1C1 C1C0 C0B0 B0A0 A0bottom0"/>
    </vehicle>
    <vehicle id="truck_left2C0.5" type="truck" depart="227.00">
        <route edges="left2C0 C0C1 C1B1 B1A1 A1bottom1"/>
    </vehicle>
    <vehicle id="truck_top1C1.2" type="truck" depart="241.00">
        <route edges="top1C1 C1C2 C2top2"/>
    </vehicle>
    <vehicle id="truck_bottom0A0.3" type="truck" depart="243.00">
        <route edges="bottom0A0 A0left0"/>
    </vehicle>
    <vehicle id="truck_bottom2A2.7" type="truck" depart="243.00">
        <route edges="bottom2A2 A2B2 B2C2 C2top2"/>
    </vehicle>
    <vehicle id="truck_bottom0A0.4" type="truck" depart="252.00">
        <route edges="bottom0A0 A0B0 B0C0 C0top0"/>
    </vehicle>
    <vehicle id="truck_bottom1A1.1" type="truck" depart="257.00">
        <route edges="bottom1A1 A1B1 B1C1 C1top1"/>
    </vehicle>
    <vehicle id="truck_left0A0.2" type="truck" depart="275.00">
        <route edges="left0A0 A0A1 A1bottom1"/>
    </vehicle>
    <vehicle id="truck_top2C2.1" type="truck" depart="280.00">
        <route edges="top2C2 C2B2 B2A2 A2B2 B2C2 C2top2"/>
    </vehicle>
    <vehicle id="truck_left1B0.5" type="truck" depart="283.00">
        <route edges="left1B0 B0B1 B1B2 B2C2 C2C1 C1C0 C0left2"/>
    </vehicle>
    <vehicle id="truck_left0A0.3" type="truck" depart="286.00">
        <route edges="left0A0 A0A1 A1bottom1"/>
    </vehicle>
    <vehicle id="truck_left2C0.6" type="truck" depart="298.00">
        <route edges="left2C0 C0C1 C1C0 C0left2"/>
    </vehicle>
    <vehicle id="truck_top2C2.2" type="truck" depart="325.00">
        <route edges="top2C2 C2B2 B2A2 A2A1 A1A0 A0left0"/>
    </vehicle>
    <vehicle id="truck_bottom1A1.2" type="truck" depart="326.00">
        <route edges="bottom1A1 A1A2 A2right0"/>
    </vehicle>
    <vehicle id="truck_left2C0.7" type="truck" depart="332.00">
        <route edges="left2C0 C0C1 C1C2 C2B2 B2right1"/>
    </vehicle>
    <vehicle id="truck_bottom0A0.5" type="truck" depart="337.00">
        <route edges="bottom0A0 A0A1 A1A2 A2right0"/>
    </vehicle>
    <vehicle id="truck_right1B2.6" type="truck" depart="339.00">
        <route edges="right1B2 B2C2 C2top2"/>
    </vehicle>
    <vehicle id="truck_top0C0.4" type="truck" depart="342.00">
        <route edges="top0C0 C0C1 C1B1 B1A1 A1A2 A2bottom2"/>
    </vehicle>
    <vehicle id="truck_right2C2.5" type="truck" depart="350.00">
        <route edges="right2C2 C2C1 C1top1"/>
    </vehicle>
    <vehicle id="truck_bottom2A2.8" type="truck" depart="359.00">
        <route edges="bottom2A2 A2right0"/>
    </vehicle>
    <vehicle id="truck_left0A0.4" type="truck" depart="359.00">
        <route edges="left0A0 A0left0"/>
    </vehicle>
    <vehicle id="truck_top2C2.3" type="truck" depart="371.00">
        <route edges="top2C2 C2B2 B2A2 A2bottom2"/>
    </vehicle>
    <vehicle id="truck_bottom2A2.9" type="truck" depart="372.00">
        <route edges="bottom2A2 A2B2 B2C2 C2C1 C1C0 C0left2"/>
    </vehicle>
    <vehicle id="truck_top0C0.5" type="truck" depart="375.00">
        <route edges="top0C0 C0B0 B0A0 A0left0"/>
    </vehicle>
    <vehicle id="truck_right2C2.6" type="truck" depart="378.00">
        <route edges="right2C2 C2top2"/>
    </vehicle>
    <vehicle id="truck_bottom0A0.6" type="truck" depart="392.00">
        <route edges="bottom0A0 A0B0 B0C0 C0top0"/>
    </vehicle>
    <vehicle id="truck_right2C2.7" type="truck" depart="398.00">
        <route edges="right2C2 C2right2"/>
    </vehicle>
    <vehicle id="truck_top2C2.4" type="truck" depart="401.00">
        <route edges="top2C2 C2B2 B2A2 A2bottom2"/>
    </vehicle>
    <vehicle id="truck_right1B2.7" type="truck" depart="405.00">
        <route edges="right1B2 B2B1 B1A1 A1A0 A0left0"/>
    </vehicle>
    <vehicle id="truck_left0A0.5" type="truck" depart="408.00">
        <route edges="left0A0 A0A1 A1A2 A2right0"/>
    </vehicle>
    <vehicle id="truck_bottom0A0.7" type="truck" depart="413.00">
        <route edges="bottom0A0 A0left0"/>
    </vehicle>
    <vehicle id="truck_left1B0.6" type="truck" depart="416.00">
        <route edges="left1B0 B0B1 B1B2 B2right1"/>
    </vehicle>
    <vehicle id="truck_left2C0.8" type="truck" depart="416.00">
        <route edges="left2C0 C0B0 B0A0 A0bottom0"/>
    </vehicle>
    <vehicle id="truck_left0A0.6" type="truck" depart="420.00">
        <route edges="left0A0 A0B0 B0B1 B1B2 B2right1"/>
    </vehicle>
    <vehicle id="truck_left2C0.9" type="truck" depart="434.00">
        <route edges="left2C0 C0C1 C1C2 C2B2 B2A2 A2right0"/>
    </vehicle>
    <vehicle id="truck_right2C2.8" type="truck" depart="434.00">
        <route edges="right2C2 C2C1 C1C0 C0B0 B0A0 A0bottom0"/>
    </vehicle>
    <vehicle id="truck_left1B0.7" type="truck" depart="450.00">
        <route edges="left1B0 B0B1 B1B2 B2right1"/>
    </vehicle>
    <vehicle id="truck_top2C2.5" type="truck" depart="451.00">
        <route edges="top2C2 C2B2 B2A2 A2right0"/>
    </vehicle>
    <vehicle id="truck_right1B2.8" type="truck" depart="452.00">
        <route edges="right1B2 B2B1 B1B0 B0left1"/>
    </vehicle>
    <vehicle id="truck_right0A2.3" type="truck" depart="458.00">
        <route edges="right0A2 A2A1 A1B1 B1C1 C1C2 C2top2"/>
    </vehicle>
    <vehicle id="truck_top2C2.6" type="truck" depart="473.00">
        <route edges="top2C2 C2right2"/>
    </vehicle>
    <vehicle id="truck_bottom1A1.3" type="truck" depart="480.00">
        <route edges="bottom1A1 A1A2 A2right0"/>
    </vehicle>
    <vehicle id="truck_top0C0.6" type="truck" depart="485.00">
        <route edges="top0C0 C0B0 B0A0 A0left0"/>
    </vehicle>
    <vehicle id="truck_left2C0.10" type="truck" depart="486.00">
        <route edges="left2C0 C0B0 B0A0 A0bottom0"/>
    </vehicle>
    <vehicle id="truck_top2C2.7" type="truck" depart="486.00">
        <route edges="top2C2 C2C1 C1C0 C0top0"/>
    </vehicle>
    <vehicle id="truck_right0A2.4" type="truck" depart="489.00">
        <route edges="right0A2 A2A1 A1A0 A0left0"/>
    </vehicle>
    <vehicle id="truck_left0A0.7" type="truck" depart="490.00">
        <route edges="left0A0 A0A1 A1A2 A2bottom2"/>
    </vehicle>
    <vehicle id="truck_right2C2.9" type="truck" depart="499.00">
        <route edges="right2C2 C2C1 C1top1"/>
    </vehicle>
    <vehicle id="truck_bottom0A0.8" type="truck" depart="501.00">
        <route edges="bottom0A0 A0left0"/>
    </vehicle>
    <vehicle id="truck_left0A0.8" type="truck" depart="511.00">
        <route edges="left0A0 A0A1 A1bottom1"/>
    </vehicle>
    <vehicle id="truck_right2C2.10" type="truck" depart="516.00">
        <route edges="right2C2 C2B2 B2A2 A2bottom2"/>
    </vehicle>
    <vehicle id="truck_left2C0.11" type="truck" depart="534.00">
        <route edges="left2C0 C0B0 B0B1 B1B0 B0left1"/>
    </vehicle>
    <vehicle id="truck_right1B2.9" type="truck" depart="536.00">
        <route edges="right1B2 B2B1 B1C1 C1top1"/>
    </vehicle>
    <vehicle id="truck_right2C2.11" type="truck" depart="536.00">
        <route edges="right2C2 C2top2"/>
    </vehicle>
    <vehicle id="truck_top1C1.3" type="truck" depart="542.00">
        <route edges="top1C1 C1B1 B1B2 B2right1"/>
    </vehicle>
    <vehicle id="truck_top1C1.4" type="truck" depart="545.00">
        <route edges="top1C1 C1B1 B1A1 A1A0 A0left0"/>
    </vehicle>
    <vehicle id="truck_bottom2A2.10" type="truck" depart="559.00">
        <route edges="bottom2A2 A2B2 B2C2 C2C1 C1C0 C0left2"/>
    </vehicle>
    <vehicle id="truck_left0A0.9" type="truck" depart="559.00">
        <route edges="left0A0 A0bottom0"/>
    </vehicle>
    <vehicle id="truck_bottom0A0.9" type="truck" depart="570.00">
        <route edges="bottom0A0 A0B0 B0C0 C0top0"/>
    </vehicle>
    <vehicle id="truck_top1C1.5" type="truck" depart="581.00">
        <route edges="top1C1 C1B1 B1A1 A1A2 A2bottom2"/>
    </vehicle>
    <vehicle id="truck_bottom0A0.10" type="truck" depart="592.00">
        <route edges="bottom0A0 A0B0 B0left1"/>
    </vehicle>
    <vehicle id="truck_top1C1.6" type="truck" depart="592.00">
        <route edges="top1C1 C1B1 B1B0 B0C0 C0left2"/>
    </vehicle>
    <vehicle id="truck_top1C1.7" type="truck" depart="594.00">
        <route edges="top1C1 C1B1 B1B0 B0left1"/>
    </vehicle>
    <vehicle id="truck_right0A2.5" type="truck" depart="595.00">
        <route edges="right0A2 A2A1 A1B1 B1B0 B0left1"/>
    </vehicle>
    <vehicle id="truck_top1C1.8" type="truck" depart="599.00">
        <route edges="top1C1 C1B1 B1B0 B0B1 B1B2 B2right1"/>
    </vehicle>
    <vehicle id="truck_left0A0.10" type="truck" depart="600.00">
        <route edges="left0A0 A0left0"/>
    </vehicle>
    <vehicle id="truck_bottom2A2.11" type="truck" depart="601.00">
        <route edges="bottom2A2 A2A1 A1A0 A0left0"/>
    </vehicle>
    <vehicle id="truck_bottom0A0.11" type="truck" depart="606.00">
        <route edges="bottom0A0 A0A1 A1B1 B1C1 C1top1"/>
    </vehicle>
    <vehicle id="truck_bottom2A2.12" type="truck" depart="609.00">
        <route edges="bottom2A2 A2B2 B2C2 C2C1 C1top1"/>
    </vehicle>
    <vehicle id="truck_top0C0.7" type="truck" depart="618.00">
        <route edges="top0C0 C0B0 B0left1"/>
    </vehicle>
    <vehicle id="truck_bottom1A1.4" type="truck" depart="633.00">
        <route edges="bottom1A1 A1B1 B1C1 C1top1"/>
    </vehicle>
    <vehicle id="truck_left2C0.12" type="truck" depart="635.00">
        <route edges="left2C0 C0B0 B0A0 A0bottom0"/>
    </vehicle>
    <vehicle id="truck_left2C0.13" type="truck" depart="644.00">
        <route edges="left2C0 C0B0 B0A0 A0bottom0"/>
    </vehicle>
    <vehicle id="truck_left2C0.14" type="truck" depart="655.00">
        <route edges="left2C0 C0top0"/>
    </vehicle>
    <vehicle id="truck_right1B2.10" type="truck" depart="675.00">
        <route edges="right1B2 B2C2 C2top2"/>
    </vehicle>
    <vehicle id="truck_left2C0.15" type="truck" depart="683.00">
        <route edges="left2C0 C0C1 C1C2 C2right2"/>
    </vehicle>
    <vehicle id="truck_right1B2.11" type="truck" depart="690.00">
        <route edges="right1B2 B2B1 B1B0 B0left1"/>
    </vehicle>
    <vehicle id="truck_left0A0.11" type="truck" depart="691.00">
        <route edges="left0A0 A0A1 A1A2 A2right0"/>
    </vehicle>
    <vehicle id="truck_right2C2.12" type="truck" depart="699.00">
        <route edges="right2C2 C2top2"/>
    </vehicle>
    <vehicle id="truck_top2C2.8" type="truck" depart="703.00">
        <route edges="top2C2 C2B2 B2right1"/>
    </vehicle>
    <vehicle id="truck_top1C1.9" type="truck" depart="713.00">
        <route edges="top1C1 C1B1 B1B2 B2C2 C2right2"/>
    </vehicle>
    <vehicle id="truck_bottom2A2.13" type="truck" depart="720.00">
        <route edges="bottom2A2 A2B2 B2C2 C2top2"/>
    </vehicle>
    <vehicle id="truck_left0A0.12" type="truck" depart="730.00">
        <route edges="left0A0 A0A1 A1A2 A2right0"/>
    </vehicle>
    <vehicle id="truck_right0A2.6" type="truck" depart="737.00">
        <route edges="right0A2 A2A1 A1B1 B1B0 B0left1"/>
    </vehicle>
    <vehicle id="truck_bottom1A1.5" type="truck" depart="752.00">
        <route edges="bottom1A1 A1B1 B1C1 C1top1"/>
    </vehicle>
    <vehicle id="truck_left0A0.13" type="truck" depart="757.00">
        <route edges="left0A0 A0A1 A1A2 A2B2 B2B1 B1B0 B0left1"/>
    </vehicle>
    <vehicle id="truck_top0C0.8" type="truck" depart="758.00">
        <route edges="top0C0 C0left2"/>
    </vehicle>
    <vehicle id="truck_left1B0.8" type="truck" depart="764.00">
        <route edges="left1B0 B0B1 B1B2 B2right1"/>
    </vehicle>
    <vehicle id="truck_left2C0.16" type="truck" depart="766.00">
        <route edges="left2C0 C0top0"/>
    </vehicle>
    <vehicle id="truck_top2C2.9" type="truck" depart="769.00">
        <route edges="top2C2 C2B2 B2A2 A2bottom2"/>
    </vehicle>
    <vehicle id="truck_right2C2.13" type="truck" depart="781.00">
        <route edges="right2C2 C2C1 C1C0 C0left2"/>
    </vehicle>
    <vehicle id="truck_bottom2A2.14" type="truck" depart="789.00">
        <route edges="bottom2A2 A2B2 B2right1"/>
    </vehicle>
    <vehicle id="truck_top1C1.10" type="truck" depart="798.00">
        <route edges="top1C1 C1B1 B1A1 A1A2 A2right0"/>
    </vehicle>
    <vehicle id="truck_right2C2.14" type="truck" depart="806.00">
        <route edges="right2C2 C2C1 C1C0 C0top0"/>
    </vehicle>
    <vehicle id="truck_right0A2.7" type="truck" depart="813.00">
        <route edges="right0A2 A2bottom2"/>
    </vehicle>
    <vehicle id="truck_right0A2.8" type="truck" depart="823.00">
        <route edges="right0A2 A2right0"/>
    </vehicle>
    <vehicle id="truck_bottom0A0.12" type="truck" depart="843.00">
        <route edges="bottom0A0 A0left0"/>
    </vehicle>
    <vehicle id="truck_top2C2.10" type="truck" depart="865.00">
        <route edges="top2C2 C2right2"/>
    </vehicle>
    <vehicle id="truck_right2C2.15" type="truck" depart="866.00">
        <route edges="right2C2 C2top2"/>
    </vehicle>
    <vehicle id="truck_left2C0.17" type="truck" depart="878.00">
        <route edges="left2C0 C0C1 C1C2 C2right2"/>
    </vehicle>
    <vehicle id="truck_top1C1.11" type="truck" depart="900.00">
        <route edges="top1C1 C1B1 B1A1 A1bottom1"/>
    </vehicle>
    <vehicle id="truck_right1B2.12" type="truck" depart="901.00">
        <route edges="right1B2 B2B1 B1B0 B0B1 B1C1 C1top1"/>
    </vehicle>
    <vehicle id="truck_top0C0.9" type="truck" depart="925.00">
        <route edges="top0C0 C0left2"/>
    </vehicle>
    <vehicle id="truck_left1B0.9" type="truck" depart="934.00">
        <route edges="left1B0 B0B1 B1B2 B2right1"/>
    </vehicle>
    <vehicle id="truck_right2C2.16" type="truck" depart="942.00">
        <route edges="right2C2 C2right2"/>
    </vehicle>
    <vehicle id="truck_left0A0.14" type="truck" depart="947.00">
        <route edges="left0A0 A0bottom0"/>
    </vehicle>
    <vehicle id="truck_top2C2.11" type="truck" depart="949.00">
        <route edges="top2C2 C2C1 C1C0 C0top0"/>
    </vehicle>
    <vehicle id="truck_right1B2.13" type="truck" depart="951.00">
        <route edges="right1B2 B2B1 B1C1 C1C0 C0left2"/>
    </vehicle>
    <vehicle id="truck_right1B2.14" type="truck" depart="959.00">
        <route edges="right1B2 B2B1 B1B0 B0C0 C0top0"/>
    </vehicle>
    <vehicle id="truck_top2C2.12" type="truck" depart="959.00">
        <route edges="top2C2 C2right2"/>
    </vehicle>
    <vehicle id="truck_left0A0.15" type="truck" depart="963.00">
        <route edges="left0A0 A0A1 A1B1 B1C1 C1top1"/>
    </vehicle>
    <vehicle id="truck_top0C0.10" type="truck" depart="966.00">
        <route edges="top0C0 C0B0 B0A0 A0bottom0"/>
    </vehicle>
    <vehicle id="truck_bottom1A1.6" type="truck" depart="980.00">
        <route edges="bottom1A1 A1A0 A0B0 B0C0 C0C1 C1C0 C0B0 B0A0 A0bottom0"/>
    </vehicle>
    <vehicle id="truck_bottom0A0.13" type="truck" depart="995.00">
        <route edges="bottom0A0 A0bottom0"/>
    </vehicle>
    <vehicle id="truck_top2C2.13" type="truck" depart="999.00">
        <route edges="top2C2 C2B2 B2A2 A2right0"/>
    </vehicle>
    <vehicle id="truck_top0C0.11" type="truck" depart="1002.00">
        <route edges="top0C0 C0B0 B0B1 B1A1 A1bottom1"/>
    </vehicle>
    <vehicle id="truck_bottom2A2.15" type="truck" depart="1014.00">
        <route edges="bottom2A2 A2B2 B2B1 B1A1 A1A2 A2right0"/>
    </vehicle>
    <vehicle id="truck_top0C0.12" type="truck" depart="1021.00">
        <route edges="top0C0 C0B0 B0A0 A0bottom0"/>
    </vehicle>
    <vehicle id="truck_top1C1.12" type="truck" depart="1023.00">
        <route edges="top1C1 C1B1 B1B2 B2right1"/>
    </vehicle>
    <vehicle id="truck_left2C0.18" type="truck" depart="1024.00">
        <route edges="left2C0 C0C1 C1C2 C2B2 B2A2 A2right0"/>
    </vehicle>
    <vehicle id="truck_bottom0A0.14" type="truck" depart="1030.00">
        <route edges="bottom0A0 A0B0 B0B1 B1B2 B2right1"/>
    </vehicle>
    <vehicle id="truck_top0C0.13" type="truck" depart="1045.00">
        <route edges="top0C0 C0B0 B0A0 A0bottom0"/>
    </vehicle>
    <vehicle id="truck_bottom0A0.15" type="truck" depart="1058.00">
        <route edges="bottom0A0 A0A1 A1A2 A2right0"/>
    </vehicle>
    <vehicle id="truck_left0A0.16" type="truck" depart="1063.00">
        <route edges="left0A0 A0A1 A1A2 A2right0"/>
    </vehicle>
    <vehicle id="truck_top1C1.13" type="truck" depart="1073.00">
        <route edges="top1C1 C1B1 B1B2 B2A2 A2bottom2"/>
    </vehicle>
    <vehicle id="truck_top0C0.14" type="truck" depart="1078.00">
        <route edges="top0C0 C0B0 B0A0 A0bottom0"/>
    </vehicle>
    <vehicle id="truck_left2C0.19" type="truck" depart="1087.00">
        <route edges="left2C0 C0B0 B0A0 A0A1 A1B1 B1B2 B2A2 A2bottom2"/>
    </vehicle>
    <vehicle id="truck_top0C0.15" type="truck" depart="1088.00">
        <route edges="top0C0 C0B0 B0A0 A0A1 A1A2 A2right0"/>
    </vehicle>
    <vehicle id="truck_top0C0.16" type="truck" depart="1108.00">
        <route edges="top0C0 C0B0 B0left1"/>
    </vehicle>
    <vehicle id="truck_left0A0.17" type="truck" depart="1118.00">
        <route edges="left0A0 A0A1 A1bottom1"/>
    </vehicle>
    <vehicle id="truck_left0A0.18" type="truck" depart="1129.00">
        <route edges="left0A0 A0bottom0"/>
    </vehicle>
    <vehicle id="truck_left0A0.19" type="truck" depart="1142.00">
        <route edges="left0A0 A0bottom0"/>
    </vehicle>
    <vehicle id="truck_top2C2.14" type="truck" depart="1146.00">
        <route edges="top2C2 C2B2 B2A2 A2bottom2"/>
    </vehicle>
    <vehicle id="truck_right1B2.15" type="truck" depart="1147.00">
        <route edges="right1B2 B2B1 B1B2 B2right1"/>
    </vehicle>
    <vehicle id="truck_left1B0.10" type="truck" depart="1153.00">
        <route edges="left1B0 B0B1 B1B2 B2B1 B1C1 C1C2 C2C1 C1B1 B1A1 A1A2 A2right0"/>
    </vehicle>
    <vehicle id="truck_bottom0A0.16" type="truck" depart="1157.00">
        <route edges="bottom0A0 A0B0 B0B1 B1A1 A1bottom1"/>
    </vehicle>
    <vehicle id="truck_right0A2.9" type="truck" depart="1165.00">
        <route edges="right0A2 A2bottom2"/>
    </vehicle>
    <vehicle id="truck_left0A0.20" type="truck" depart="1171.00">
        <route edges="left0A0 A0bottom0"/>
    </vehicle>
    <vehicle id="truck_top1C1.14" type="truck" depart="1188.00">
        <route edges="top1C1 C1B1 B1B0 B0left1"/>
    </vehicle>
    <vehicle id="truck_right1B2.16" type="truck" depart="1199.00">
        <route edges="right1B2 B2B1 B1B0 B0left1"/>
    </vehicle>
    <vehicle id="truck_left1B0.11" type="truck" depart="1206.00">
        <route edges="left1B0 B0B1 B1B2 B2A2 A2A1 A1A0 A0A1 A1A2 A2bottom2"/>
    </vehicle>
    <vehicle id="truck_bottom1A1.7" type="truck" depart="1212.00">
        <route edges="bottom1A1 A1B1 B1C1 C1C2 C2B2 B2right1"/>
    </vehicle>
    <vehicle id="truck_bottom1A1.8" type="truck" depart="1215.00">
        <route edges="bottom1A1 A1A0 A0B0 B0left1"/>
    </vehicle>
    <vehicle id="truck_bottom2A2.16" type="truck" depart="1215.00">
        <route edges="bottom2A2 A2B2 B2C2 C2top2"/>
    </vehicle>
    <vehicle id="truck_top2C2.15" type="truck" depart="1215.00">
        <route edges="top2C2 C2right2"/>
    </vehicle>
    <vehicle id="truck_right0A2.10" type="truck" depart="1219.00">
        <route edges="right0A2 A2A1 A1B1 B1C1 C1top1"/>
    </vehicle>
    <vehicle id="truck_left1B0.12" type="truck" depart="1234.00">
        <route edges="left1B0 B0B1 B1B2 B2right1"/>
    </vehicle>
    <vehicle id="truck_top1C1.15" type="truck" depart="1240.00">
        <route edges="top1C1 C1B1 B1A1 A1bottom1"/>
    </vehicle>
    <vehicle id="truck_right1B2.17" type="truck" depart="1246.00">
        <route edges="right1B2 B2B1 B1B0 B0left1"/>
    </vehicle>
    <vehicle id="truck_top2C2.16" type="truck" depart="1261.00">
        <route edges="top2C2 C2B2 B2A2 A2A1 A1bottom1"/>
    </vehicle>
    <vehicle id="truck_bottom1A1.9" type="truck" depart="1264.00">
        <route edges="bottom1A1 A1A0 A0B0 B0C0 C0C1 C1B1 B1A1 A1bottom1"/>
    </vehicle>
    <vehicle id="truck_top0C0.17" type="truck" depart="1268.00">
        <route edges="top0C0 C0B0 B0A0 A0bottom0"/>
    </vehicle>
    <vehicle id="truck_bottom0A0.17" type="truck" depart="1284.00">
        <route edges="bottom0A0 A0B0 B0C0 C0C1 C1C2 C2top2"/>
    </vehicle>
    <vehicle id="truck_left1B0.13" type="truck" depart="1287.00">
        <route edges="left1B0 B0C0 C0top0"/>
    </vehicle>
    <vehicle id="truck_right2C2.17" type="truck" depart="1297.00">
        <route edges="right2C2 C2C1 C1C0 C0left2"/>
    </vehicle>
    <vehicle id="truck_left0A0.21" type="truck" depart="1308.00">
        <route edges="left0A0 A0A1 A1B1 B1B0 B0left1"/>
    </vehicle>
    <vehicle id="truck_bottom0A0.18" type="truck" depart="1313.00">
        <route edges="bottom0A0 A0A1 A1A2 A2right0"/>
    </vehicle>
    <vehicle id="truck_top2C2.17" type="truck" depart="1317.00">
        <route edges="top2C2 C2B2 B2A2 A2bottom2"/>
    </vehicle>
    <vehicle id="truck_bottom0A0.19" type="truck" depart="1325.00">
        <route edges="bottom0A0 A0B0 B0C0 C0B0 B0A0 A0left0"/>
    </vehicle>
    <vehicle id="truck_bottom2A2.17" type="truck" depart="1341.00">
        <route edges="bottom2A2 A2B2 B2B1 B1B0 B0A0 A0B0 B0C0 C0top0"/>
    </vehicle>
    <vehicle id="truck_top2C2.18" type="truck" depart="1341.00">
        <route edges="top2C2 C2B2 B2A2 A2bottom2"/>
    </vehicle>
    <vehicle id="truck_bottom1A1.10" type="truck" depart="1352.00">
        <route edges="bottom1A1 A1A0 A0left0"/>
    </vehicle>
    <vehicle id="truck_left0A0.22" type="truck" depart="1356.00">
        <route edges="left0A0 A0B0 B0left1"/>
    </vehicle>
    <vehicle id="truck_left1B0.14" type="truck" depart="1369.00">
        <route edges="left1B0 B0A0 A0bottom0"/>
    </vehicle>
    <vehicle id="truck_right1B2.18" type="truck" depart="1373.00">
        <route edges="right1B2 B2B1 B1C1 C1C0 C0left2"/>
    </vehicle>
    <vehicle id="truck_left0A0.23" type="truck" depart="1376.00">
        <route edges="left0A0 A0A1 A1B1 B1C1 C1top1"/>
    </vehicle>
    <vehicle id="truck_left2C0.20" type="truck" depart="1383.00">
        <route edges="left2C0 C0top0"/>
    </vehicle>
    <vehicle id="truck_right2C2.18" type="truck" depart="1383.00">
        <route edges="right2C2 C2top2"/>
    </vehicle>
    <vehicle id="truck_bottom1A1.11" type="truck" depart="1390.00">
        <route edges="bottom1A1 A1B1 B1C1 C1top1"/>
    </vehicle>
    <vehicle id="truck_bottom0A0.20" type="truck" depart="1409.00">
        <route edges="bottom0A0 A0B0 B0C0 C0left2"/>
    </vehicle>
    <vehicle id="truck_right0A2.11" type="truck" depart="1413.00">
        <route edges="right0A2 A2A1 A1B1 B1B0 B0left1"/>
    </vehicle>
    <vehicle id="truck_top0C0.18" type="truck" depart="1427.00">
        <route edges="top0C0 C0B0 B0A0 A0bottom0"/>
    </vehicle>
    <vehicle id="truck_right0A2.12" type="truck" depart="1429.00">
        <route edges="right0A2 A2A1 A1A0 A0left0"/>
    </vehicle>
    <vehicle id="truck_bottom2A2.18" type="truck" depart="1435.00">
        <route edges="bottom2A2 A2B2 B2C2 C2top2"/>
    </vehicle>
    <vehicle id="truck_right2C2.19" type="truck" depart="1438.00">