<?xml version='1.0' encoding='utf-8'?>
<edges xmlns:xsi="http://www.w3.org/2001/XMLSchema-instance" xsi:noNamespaceSchemaLocation="http://sumo.dlr.de/xsd/edges_file.xsd">

    <edge id="A0A1" from="A0" to="A1" type="arterial_5" spreadType="roadCenter" />
    <edge id="A1A0" from="A1" to="A0" type="arterial_5" spreadType="roadCenter" />
    <edge id="A1A2" from="A1" to="A2" type="arterial_4" spreadType="roadCenter" />
    <edge id="A2A1" from="A2" to="A1" type="arterial_4" spreadType="roadCenter" />
    <edge id="A2A3" from="A2" to="A3" type="arterial_5" spreadType="roadCenter" />
    <edge id="A3A2" from="A3" to="A2" type="arterial_5" spreadType="roadCenter" />
    <edge id="A3A4" from="A3" to="A4" type="arterial_6" spreadType="roadCenter" />
    <edge id="A4A3" from="A4" to="A3" type="arterial_5" spreadType="roadCenter" />
    <edge id="A4A5" from="A4" to="A5" type="arterial_6" spreadType="roadCenter" />
    <edge id="A5A4" from="A5" to="A4" type="arterial_6" spreadType="roadCenter" />
    <edge id="A5A6" from="A5" to="A6" type="arterial_5" spreadType="roadCenter" />
    <edge id="A6A5" from="A6" to="A5" type="arterial_5" spreadType="roadCenter" />
    <edge id="A6A7" from="A6" to="A7" type="arterial_4" spreadType="roadCenter" />
    <edge id="A7A6" from="A7" to="A6" type="arterial_4" spreadType="roadCenter" />

    <edge id="B0B1" from="B0" to="B1" type="arterial_4" spreadType="roadCenter" />
    <edge id="B1B0" from="B1" to="B0" type="arterial_3" spreadType="roadCenter" />
    <edge id="B1B2" from="B1" to="B2" type="arterial_3" spreadType="roadCenter" />
    <edge id="B2B1" from="B2" to="B1" type="arterial_4" spreadType="roadCenter" />
    <edge id="B2B3" from="B2" to="B3" type="arterial_3" spreadType="roadCenter" />
    <edge id="B3B2" from="B3" to="B2" type="arterial_4" spreadType="roadCenter" />
    <edge id="B3B4" from="B3" to="B4" type="arterial_4" spreadType="roadCenter" />
    <edge id="B4B3" from="B4" to="B3" type="arterial_3" spreadType="roadCenter" />
    <edge id="B4B5" from="B4" to="B5" type="arterial_3" spreadType="roadCenter" />
    <edge id="B5B4" from="B5" to="B4" type="arterial_4" spreadType="roadCenter" />
    <edge id="B6B7" from="B6" to="B7" type="arterial_4" spreadType="roadCenter" />
    <edge id="B7B6" from="B7" to="B6" type="arterial_3" spreadType="roadCenter" />

    <edge id="C0C1" from="C0" to="C1" type="arterial_4" spreadType="roadCenter" />
    <edge id="C1C0" from="C1" to="C0" type="arterial_3" spreadType="roadCenter" />
    <edge id="C1C2" from="C1" to="C2" type="arterial_4" spreadType="roadCenter" />
    <edge id="C2C1" from="C2" to="C1" type="arterial_3" spreadType="roadCenter" />
    <edge id="C2C3" from="C2" to="C3" type="arterial_4" spreadType="roadCenter" />
    <edge id="C3C2" from="C3" to="C2" type="arterial_3" spreadType="roadCenter" />
    <edge id="C3C4" from="C3" to="C4" type="arterial_4" spreadType="roadCenter" />
    <edge id="C4C3" from="C4" to="C3" type="arterial_3" spreadType="roadCenter" />
    <edge id="C4C5" from="C4" to="C5" type="arterial_4" spreadType="roadCenter" />
    <edge id="C5C4" from="C5" to="C4" type="arterial_4" spreadType="roadCenter" />
    <edge id="C5C6" from="C5" to="C6" type="arterial_4" spreadType="roadCenter" />
    <edge id="C6C5" from="C6" to="C5" type="arterial_4" spreadType="roadCenter" />
    <edge id="C6C7" from="C6" to="C7" type="arterial_5" spreadType="roadCenter" />
    <edge id="C7C6" from="C7" to="C6" type="arterial_5" spreadType="roadCenter" />

    <edge id="D0D1" from="D0" to="D1" type="arterial_4" spreadType="roadCenter" />
    <edge id="D1D0" from="D1" to="D0" type="arterial_3" spreadType="roadCenter" />
    <edge id="D1D2" from="D1" to="D2" type="arterial_3" spreadType="roadCenter" />
    <edge id="D2D1" from="D2" to="D1" type="arterial_4" spreadType="roadCenter" />
    <edge id="D2D3" from="D2" to="D3" type="arterial_3" spreadType="roadCenter" />
    <edge id="D3D4" from="D3" to="D4" type="arterial_3" spreadType="roadCenter" />
    <edge id="D4D5" from="D4" to="D5" type="arterial_3" spreadType="roadCenter" />
    <edge id="D5D6" from="D5" to="D6" type="arterial_3" spreadType="roadCenter" />
    <edge id="D6D5" from="D6" to="D5" type="arterial_3" spreadType="roadCenter" />
    <edge id="D6D7" from="D6" to="D7" type="arterial_4" spreadType="roadCenter" />
    <edge id="D7D6" from="D7" to="D6" type="arterial_4" spreadType="roadCenter" />

    <edge id="E0E1" from="E0" to="E1" type="arterial_3" spreadType="roadCenter" />
    <edge id="E1E0" from="E1" to="E0" type="arterial_3" spreadType="roadCenter" />
    <edge id="E3E2" from="E3" to="E2" type="arterial_3" spreadType="roadCenter" />
    <edge id="E4E3" from="E4" to="E3" type="arterial_3" spreadType="roadCenter" />
    <edge id="E5E4" from="E5" to="E4" type="arterial_3" spreadType="roadCenter" />
    <edge id="E5E6" from="E5" to="E6" type="arterial_3" spreadType="roadCenter" />
    <edge id="E6E5" from="E6" to="E5" type="arterial_4" spreadType="roadCenter" />
    <edge id="E6E7" from="E6" to="E7" type="arterial_3" spreadType="roadCenter" />
    <edge id="E7E6" from="E7" to="E6" type="arterial_4" spreadType="roadCenter" />

    <edge id="F0F1" from="F0" to="F1" type="arterial_3" spreadType="roadCenter" />
    <edge id="F1F0" from="F1" to="F0" type="arterial_3" spreadType="roadCenter" />
    <edge id="F1F2" from="F1" to="F2" type="arterial_4" spreadType="roadCenter" />
    <edge id="F2F1" from="F2" to="F1" type="arterial_4" spreadType="roadCenter" />
    <edge id="F2F3" from="F2" to="F3" type="arterial_3" spreadType="roadCenter" />
    <edge id="F3F2" from="F3" to="F2" type="arterial_3" spreadType="roadCenter" />
    <edge id="F3F4" from="F3" to="F4" type="arterial_4" spreadType="roadCenter" />
    <edge id="F4F3" from="F4" to="F3" type="arterial_4" spreadType="roadCenter" />
    <edge id="F4F5" from="F4" to="F5" type="arterial_3" spreadType="roadCenter" />
    <edge id="F5F4" from="F5" to="F4" type="arterial_3" spreadType="roadCenter" />
    <edge id="F6F7" from="F6" to="F7" type="arterial_4" spreadType="roadCenter" />
    <edge id="F7F6" from="F7" to="F6" type="arterial_3" spreadType="roadCenter" />

    <edge id="G0G1" from="G0" to="G1" type="arterial_4" spreadType="roadCenter" />
    <edge id="G1G0" from="G1" to="G0" type="arterial_4" spreadType="roadCenter" />
    <edge id="G1G2" from="G1" to="G2" type="arterial_4" spreadType="roadCenter" />
    <edge id="G2G1" from="G2" to="G1" type="arterial_4" spreadType="roadCenter" />
    <edge id="G2G3" from="G2" to="G3" type="arterial_4" spreadType="roadCenter" />
    <edge id="G3G2" from="G3" to="G2" type="arterial_5" spreadType="roadCenter" />
    <edge id="G3G4" from="G3" to="G4" type="arterial_4" spreadType="roadCenter" />
    <edge id="G4G3" from="G4" to="G3" type="arterial_4" spreadType="roadCenter" />
    <edge id="G4G5" from="G4" to="G5" type="arterial_4" spreadType="roadCenter" />
    <edge id="G5G4" from="G5" to="G4" type="arterial_4" spreadType="roadCenter" />
    <edge id="G5G6" from="G5" to="G6" type="arterial_4" spreadType="roadCenter" />
    <edge id="G6G5" from="G6" to="G5" type="arterial_5" spreadType="roadCenter" />
    <edge id="G6G7" from="G6" to="G7" type="arterial_4" spreadType="roadCenter" />
    <edge id="G7G6" from="G7" to="G6" type="arterial_4" spreadType="roadCenter" />

    <edge id="A0B0" from="A0" to="B0" type="arterial_4" spreadType="roadCenter" />
    <edge id="B0A0" from="B0" to="A0" type="arterial_5" spreadType="roadCenter" />
    <edge id="B0C0" from="B0" to="C0" type="arterial_5" spreadType="roadCenter" />
    <edge id="C0B0" from="C0" to="B0" type="arterial_6" spreadType="roadCenter" />
    <edge id="C0D0" from="C0" to="D0" type="arterial_6" spreadType="roadCenter" />
    <edge id="D0C0" from="D0" to="C0" type="arterial_5" spreadType="roadCenter" />
    <edge id="D0E0" from="D0" to="E0" type="arterial_6" spreadType="roadCenter" />
    <edge id="E0D0" from="E0" to="D0" type="arterial_5" spreadType="roadCenter" />
    <edge id="E0F0" from="E0" to="F0" type="arterial_5" spreadType="roadCenter" />
    <edge id="F0E0" from="F0" to="E0" type="arterial_4" spreadType="roadCenter" />
    <edge id="F0G0" from="F0" to="G0" type="arterial_4" spreadType="roadCenter" />
    <edge id="G0F0" from="G0" to="F0" type="arterial_5" spreadType="roadCenter" />

    <edge id="A1B1" from="A1" to="B1" type="arterial_4" spreadType="roadCenter" />
    <edge id="B1A1" from="B1" to="A1" type="arterial_3" spreadType="roadCenter" />
    <edge id="B1C1" from="B1" to="C1" type="arterial_3" spreadType="roadCenter" />
    <edge id="C1B1" from="C1" to="B1" type="arterial_3" spreadType="roadCenter" />
    <edge id="C1D1" from="C1" to="D1" type="arterial_4" spreadType="roadCenter" />
    <edge id="D1C1" from="D1" to="C1" type="arterial_3" spreadType="roadCenter" />
    <edge id="D1E1" from="D1" to="E1" type="arterial_4" spreadType="roadCenter" />
    <edge id="E1D1" from="E1" to="D1" type="arterial_4" spreadType="roadCenter" />
    <edge id="E1F1" from="E1" to="F1" type="arterial_3" spreadType="roadCenter" />
    <edge id="F1E1" from="F1" to="E1" type="arterial_4" spreadType="roadCenter" />
    <edge id="F1G1" from="F1" to="G1" type="arterial_4" spreadType="roadCenter" />
    <edge id="G1F1" from="G1" to="F1" type="arterial_5" spreadType="roadCenter" />

    <edge id="A2B2" from="A2" to="B2" type="arterial_3" spreadType="roadCenter" />
    <edge id="B2A2" from="B2" to="A2" type="arterial_3" spreadType="roadCenter" />
    <edge id="C2D2" from="C2" to="D2" type="arterial_4" spreadType="roadCenter" />
    <edge id="D2C2" from="D2" to="C2" type="arterial_3" spreadType="roadCenter" />
    <edge id="D2E2" from="D2" to="E2" type="arterial_4" spreadType="roadCenter" />
    <edge id="E2D2" from="E2" to="D2" type="arterial_4" spreadType="roadCenter" />
    <edge id="E2F2" from="E2" to="F2" type="arterial_4" spreadType="roadCenter" />
    <edge id="F2E2" from="F2" to="E2" type="arterial_3" spreadType="roadCenter" />
    <edge id="F2G2" from="F2" to="G2" type="arterial_4" spreadType="roadCenter" />
    <edge id="G2F2" from="G2" to="F2" type="arterial_4" spreadType="roadCenter" />

    <edge id="A3B3" from="A3" to="B3" type="arterial_3" spreadType="roadCenter" />
    <edge id="B3A3" from="B3" to="A3" type="arterial_3" spreadType="roadCenter" />
    <edge id="B3C3" from="B3" to="C3" type="arterial_3" spreadType="roadCenter" />
    <edge id="C3B3" from="C3" to="B3" type="arterial_4" spreadType="roadCenter" />
    <edge id="D3C3" from="D3" to="C3" type="arterial_3" spreadType="roadCenter" />
    <edge id="E3D3" from="E3" to="D3" type="arterial_3" spreadType="roadCenter" />
    <edge id="F3E3" from="F3" to="E3" type="arterial_3" spreadType="roadCenter" />
    <edge id="F3G3" from="F3" to="G3" type="arterial_3" spreadType="roadCenter" />
    <edge id="G3F3" from="G3" to="F3" type="arterial_4" spreadType="roadCenter" />

    <edge id="A4B4" from="A4" to="B4" type="arterial_4" spreadType="roadCenter" />
    <edge id="B4A4" from="B4" to="A4" type="arterial_3" spreadType="roadCenter" />
    <edge id="B4C4" from="B4" to="C4" type="arterial_3" spreadType="roadCenter" />
    <edge id="C4B4" from="C4" to="B4" type="arterial_3" spreadType="roadCenter" />
    <edge id="C4D4" from="C4" to="D4" type="arterial_3" spreadType="roadCenter" />
    <edge id="D4E4" from="D4" to="E4" type="arterial_3" spreadType="roadCenter" />
    <edge id="E4F4" from="E4" to="F4" type="arterial_3" spreadType="roadCenter" />
    <edge id="F4G4" from="F4" to="G4" type="arterial_4" spreadType="roadCenter" />
    <edge id="G4F4" from="G4" to="F4" type="arterial_3" spreadType="roadCenter" />

    <edge id="A5B5" from="A5" to="B5" type="arterial_4" spreadType="roadCenter" />
    <edge id="B5A5" from="B5" to="A5" type="arterial_4" spreadType="roadCenter" />
    <edge id="B5C5" from="B5" to="C5" type="arterial_3" spreadType="roadCenter" />
    <edge id="C5B5" from="C5" to="B5" type="arterial_4" spreadType="roadCenter" />
    <edge id="C5D5" from="C5" to="D5" type="arterial_3" spreadType="roadCenter" />
    <edge id="D5C5" from="D5" to="C5" type="arterial_3" spreadType="roadCenter" />
    <edge id="D5E5" from="D5" to="E5" type="arterial_3" spreadType="roadCenter" />
    <edge id="E5D5" from="E5" to="D5" type="arterial_4" spreadType="roadCenter" />
    <edge id="E5F5" from="E5" to="F5" type="arterial_4" spreadType="roadCenter" />
    <edge id="F5E5" from="F5" to="E5" type="arterial_4" spreadType="roadCenter" />
    <edge id="F5G5" from="F5" to="G5" type="arterial_4" spreadType="roadCenter" />
    <edge id="G5F5" from="G5" to="F5" type="arterial_4" spreadType="roadCenter" />

    <edge id="A6B6" from="A6" to="B6" type="arterial_4" spreadType="roadCenter" />
    <edge id="B6A6" from="B6" to="A6" type="arterial_4" spreadType="roadCenter" />
    <edge id="B6C6" from="B6" to="C6" type="arterial_4" spreadType="roadCenter" />
    <edge id="C6B6" from="C6" to="B6" type="arterial_4" spreadType="roadCenter" />
    <edge id="C6D6" from="C6" to="D6" type="arterial_4" spreadType="roadCenter" />
    <edge id="D6C6" from="D6" to="C6" type="arterial_3" spreadType="roadCenter" />
    <edge id="D6E6" from="D6" to="E6" type="arterial_4" spreadType="roadCenter" />
    <edge id="E6D6" from="E6" to="D6" type="arterial_3" spreadType="roadCenter" />
    <edge id="E6F6" from="E6" to="F6" type="arterial_4" spreadType="roadCenter" />
    <edge id="F6E6" from="F6" to="E6" type="arterial_3" spreadType="roadCenter" />
    <edge id="F6G6" from="F6" to="G6" type="arterial_5" spreadType="roadCenter" />
    <edge id="G6F6" from="G6" to="F6" type="arterial_4" spreadType="roadCenter" />

    <edge id="A7B7" from="A7" to="B7" type="arterial_5" spreadType="roadCenter" />
    <edge id="B7A7" from="B7" to="A7" type="arterial_6" spreadType="roadCenter" />
    <edge id="B7C7" from="B7" to="C7" type="arterial_6" spreadType="roadCenter" />
    <edge id="C7B7" from="C7" to="B7" type="arterial_5" spreadType="roadCenter" />
    <edge id="C7D7" from="C7" to="D7" type="arterial_6" spreadType="roadCenter" />
    <edge id="D7C7" from="D7" to="C7" type="arterial_5" spreadType="roadCenter" />
    <edge id="D7E7" from="D7" to="E7" type="arterial_5" spreadType="roadCenter" />
    <edge id="E7D7" from="E7" to="D7" type="arterial_4" spreadType="roadCenter" />
    <edge id="E7F7" from="E7" to="F7" type="arterial_6" spreadType="roadCenter" />
    <edge id="F7E7" from="F7" to="E7" type="arterial_5" spreadType="roadCenter" />
    <edge id="F7G7" from="F7" to="G7" type="arterial_6" spreadType="roadCenter" />
    <edge id="G7F7" from="G7" to="F7" type="arterial_5" spreadType="roadCenter" />

    <edge id="bottom0A0" from="bottom0" to="A0" type="arterial_4" spreadType="roadCenter" />
    <edge id="A0bottom0" from="A0" to="bottom0" type="arterial_4" spreadType="roadCenter" />
    <edge id="top0G0" from="top0" to="G0" type="arterial_4" spreadType="roadCenter" />
    <edge id="G0top0" from="G0" to="top0" type="arterial_3" spreadType="roadCenter" />
    <edge id="bottom1A1" from="bottom1" to="A1" type="arterial_4" spreadType="roadCenter" />
    <edge id="A1bottom1" from="A1" to="bottom1" type="arterial_3" spreadType="roadCenter" />
    <edge id="top1G1" from="top1" to="G1" type="arterial_4" spreadType="roadCenter" />
    <edge id="G1top1" from="G1" to="top1" type="arterial_3" spreadType="roadCenter" />
    <edge id="bottom2A2" from="bottom2" to="A2" type="arterial_4" spreadType="roadCenter" />
    <edge id="A2bottom2" from="A2" to="bottom2" type="arterial_3" spreadType="roadCenter" />
    <edge id="top2G2" from="top2" to="G2" type="arterial_4" spreadType="roadCenter" />
    <edge id="G2top2" from="G2" to="top2" type="arterial_3" spreadType="roadCenter" />
    <edge id="bottom3A3" from="bottom3" to="A3" type="arterial_4" spreadType="roadCenter" />
    <edge id="A3bottom3" from="A3" to="bottom3" type="arterial_3" spreadType="roadCenter" />
    <edge id="top3G3" from="top3" to="G3" type="arterial_4" spreadType="roadCenter" />
    <edge id="G3top3" from="G3" to="top3" type="arterial_3" spreadType="roadCenter" />
    <edge id="bottom4A4" from="bottom4" to="A4" type="arterial_4" spreadType="roadCenter" />
    <edge id="A4bottom4" from="A4" to="bottom4" type="arterial_3" spreadType="roadCenter" />
    <edge id="top4G4" from="top4" to="G4" type="arterial_4" spreadType="roadCenter" />
    <edge id="G4top4" from="G4" to="top4" type="arterial_3" spreadType="roadCenter" />
    <edge id="bottom5A5" from="bottom5" to="A5" type="arterial_5" spreadType="roadCenter" />
    <edge id="A5bottom5" from="A5" to="bottom5" type="arterial_4" spreadType="roadCenter" />
    <edge id="top5G5" from="top5" to="G5" type="arterial_4" spreadType="roadCenter" />
    <edge id="G5top5" from="G5" to="top5" type="arterial_3" spreadType="roadCenter" />
    <edge id="bottom6A6" from="bottom6" to="A6" type="arterial_4" spreadType="roadCenter" />
    <edge id="A6bottom6" from="A6" to="bottom6" type="arterial_3" spreadType="roadCenter" />
    <edge id="top6G6" from="top6" to="G6" type="arterial_4" spreadType="roadCenter" />
    <edge id="G6top6" from="G6" to="top6" type="arterial_3" spreadType="roadCenter" />
    <edge id="bottom7A7" from="bottom7" to="A7" type="arterial_4" spreadType="roadCenter" />
    <edge id="A7bottom7" from="A7" to="bottom7" type="arterial_4" spreadType="roadCenter" />
    <edge id="top7G7" from="top7" to="G7" type="arterial_4" spreadType="roadCenter" />
    <edge id="G7top7" from="G7" to="top7" type="arterial_4" spreadType="roadCenter" />

    <edge id="left0A0" from="left0" to="A0" type="arterial_4" spreadType="roadCenter" />
    <edge id="A0left0" from="A0" to="left0" type="arterial_4" spreadType="roadCenter" />
    <edge id="right0A7" from="right0" to="A7" type="arterial_4" spreadType="roadCenter" />
    <edge id="A7right0" from="A7" to="right0" type="arterial_3" spreadType="roadCenter" />
    <edge id="left1B0" from="left1" to="B0" type="arterial_4" spreadType="roadCenter" />
    <edge id="B0left1" from="B0" to="left1" type="arterial_3" spreadType="roadCenter" />
    <edge id="right1B7" from="right1" to="B7" type="arterial_4" spreadType="roadCenter" />
    <edge id="B7right1" from="B7" to="right1" type="arterial_3" spreadType="roadCenter" />
    <edge id="left2C0" from="left2" to="C0" type="arterial_4" spreadType="roadCenter" />
    <edge id="C0left2" from="C0" to="left2" type="arterial_3" spreadType="roadCenter" />
    <edge id="right2C7" from="right2" to="C7" type="arterial_4" spreadType="roadCenter" />
    <edge id="C7right2" from="C7" to="right2" type="arterial_3" spreadType="roadCenter" />
    <edge id="left3D0" from="left3" to="D0" type="arterial_4" spreadType="roadCenter" />
    <edge id="D0left3" from="D0" to="left3" type="arterial_3" spreadType="roadCenter" />
    <edge id="right3D7" from="right3" to="D7" type="arterial_4" spreadType="roadCenter" />
    <edge id="D7right3" from="D7" to="right3" type="arterial_3" spreadType="roadCenter" />
    <edge id="left4E0" from="left4" to="E0" type="arterial_4" spreadType="roadCenter" />
    <edge id="E0left4" from="E0" to="left4" type="arterial_3" spreadType="roadCenter" />
    <edge id="right4E7" from="right4" to="E7" type="arterial_4" spreadType="roadCenter" />
    <edge id="E7right4" from="E7" to="right4" type="arterial_3" spreadType="roadCenter" />
    <edge id="left5F0" from="left5" to="F0" type="arterial_4" spreadType="roadCenter" />
    <edge id="F0left5" from="F0" to="left5" type="arterial_3" spreadType="roadCenter" />
    <edge id="right5F7" from="right5" to="F7" type="arterial_5" spreadType="roadCenter" />
    <edge id="F7right5" from="F7" to="right5" type="arterial_3" spreadType="roadCenter" />
    <edge id="left6G0" from="left6" to="G0" type="arterial_4" spreadType="roadCenter" />
    <edge id="G0left6" from="G0" to="left6" type="arterial_3" spreadType="roadCenter" />
    <edge id="right6G7" from="right6" to="G7" type="arterial_4" spreadType="roadCenter" />
    <edge id="G7right6" from="G7" to="right6" type="arterial_3" spreadType="roadCenter" />

</edges>