<?xml version="1.0" encoding="UTF-8"?>
<additional xmlns:xsi="http://www.w3.org/2001/XMLSchema-instance" xsi:noNamespaceSchemaLocation="http://sumo.dlr.de/xsd/additional_file.xsd">

    <tlLogic id="A0" type="static" programID="0" offset="0">
        <phase duration="25" state="grrrrrgGGrrrgrrrrgGGrrGrGr"/>
        <phase duration="3"  state="grrrrrgyyrrrgrrrrgyyrrrrrr"/>
        <phase duration="2"  state="grrrrrgrrrrrgrrrrgrrrrrrrr"/>
        <phase duration="20" state="grrrrrgrrGGGgrrrrgrrGGrrrr"/>
        <phase duration="3"  state="grrrrrgrryyygrrrrgrryyrrrr"/>
        <phase duration="2"  state="grrrrrgrrrrrgrrrrgrrrrrrrr"/>
        <phase duration="25" state="gGGrrrgrrrrrgGGrrgrrrrrGrG"/>
        <phase duration="3"  state="gyyrrrgrrrrrgyyrrgrrrrrrrr"/>
        <phase duration="2"  state="grrrrrgrrrrrgrrrrgrrrrrrrr"/>
        <phase duration="20" state="grrGGGgrrrrrgrrGGgrrrrrrrr"/>
        <phase duration="3"  state="grryyygrrrrrgrryygrrrrrrrr"/>
        <phase duration="2"  state="grrrrrgrrrrrgrrrrgrrrrrrrr"/>
    </tlLogic>
    <tlLogic id="A1" type="static" programID="0" offset="0">
        <phase duration="25" state="gGGrrgrrrrrgGGrrrgrrrrGrG"/>
        <phase duration="3"  state="gyyrrgrrrrrgyyrrrgrrrrrrr"/>
        <phase duration="2"  state="grrrrgrrrrrgrrrrrgrrrrrrr"/>
        <phase duration="20" state="grrGGgrrrrrgrrGGGgrrrrrrr"/>
        <phase duration="3"  state="grryygrrrrrgrryyygrrrrrrr"/>
        <phase duration="2"  state="grrrrgrrrrrgrrrrrgrrrrrrr"/>
        <phase duration="25" state="grrrrgGGrrrgrrrrrgGrrGrGr"/>
        <phase duration="3"  state="grrrrgyyrrrgrrrrrgyrrrrrr"/>
        <phase duration="2"  state="grrrrgrrrrrgrrrrrgrrrrrrr"/>
        <phase duration="20" state="grrrrgrrGGGgrrrrrgrGGrrrr"/>
        <phase duration="3"  state="grrrrgrryyygrrrrrgryyrrrr"/>
        <phase duration="2"  state="grrrrgrrrrrgrrrrrgrrrrrrr"/>
    </tlLogic>
    <tlLogic id="A2" type="static" programID="0" offset="0">
        <phase duration="25" state="grrrrgGGrrrgrrrrgGGrrGrGr"/>
        <phase duration="3"  state="grrrrgyyrrrgrrrrgyyrrrrrr"/>
        <phase duration="2"  state="grrrrgrrrrrgrrrrgrrrrrrrr"/>
        <phase duration="20" state="grrrrgrrGGGgrrrrgrrGGrrrr"/>
        <phase duration="3"  state="grrrrgrryyygrrrrgrryyrrrr"/>
        <phase duration="2"  state="grrrrgrrrrrgrrrrgrrrrrrrr"/>
        <phase duration="25" state="gGrrrgrrrrrgGGrrgrrrrrGrG"/>
        <phase duration="3"  state="gyrrrgrrrrrgyyrrgrrrrrrrr"/>
        <phase duration="2"  state="grrrrgrrrrrgrrrrgrrrrrrrr"/>
        <phase duration="20" state="grGGGgrrrrrgrrGGgrrrrrrrr"/>
        <phase duration="3"  state="gryyygrrrrrgrryygrrrrrrrr"/>
        <phase duration="2"  state="grrrrgrrrrrgrrrrgrrrrrrrr"/>
    </tlLogic>
    <tlLogic id="A3" type="static" programID="0" offset="0">
        <phase duration="25" state="grrrrgGGrrrgrrrrrgGGGrrrGrGr"/>
        <phase duration="3"  state="grrrrgyyrrrgrrrrrgyyyrrrrrrr"/>
        <phase duration="2"  state="grrrrgrrrrrgrrrrrgrrrrrrrrrr"/>
        <phase duration="20" state="grrrrgrrGGGgrrrrrgrrrGGGrrrr"/>
        <phase duration="3"  state="grrrrgrryyygrrrrrgrrryyyrrrr"/>
        <phase duration="2"  state="grrrrgrrrrrgrrrrrgrrrrrrrrrr"/>
        <phase duration="25" state="gGrrrgrrrrrgGGrrrgrrrrrrrGrG"/>
        <phase duration="3"  state="gyrrrgrrrrrgyyrrrgrrrrrrrrrr"/>
        <phase duration="2"  state="grrrrgrrrrrgrrrrrgrrrrrrrrrr"/>
        <phase duration="20" state="grGGGgrrrrrgrrGGGgrrrrrrrrrr"/>
        <phase duration="3"  state="gryyygrrrrrgrryyygrrrrrrrrrr"/>
        <phase duration="2"  state="grrrrgrrrrrgrrrrrgrrrrrrrrrr"/>
    </tlLogic>
    <tlLogic id="A4" type="static" programID="0" offset="0">
        <phase duration="25" state="grrrrgrrrGGGgrrrrrgrrrGGGGrGr"/>
        <phase duration="3"  state="grrrrgrrryyygrrrrrgrrryyyrrrr"/>
        <phase duration="2"  state="grrrrgrrrrrrgrrrrrgrrrrrrrrrr"/>
        <phase duration="20" state="grrrrgGGGrrrgrrrrrgGGGrrrrrrr"/>
        <phase duration="3"  state="grrrrgyyyrrrgrrrrrgyyyrrrrrrr"/>
        <phase duration="2"  state="grrrrgrrrrrrgrrrrrgrrrrrrrrrr"/>
        <phase duration="25" state="gGrrrgrrrrrrgGGrrrgrrrrrrrGrG"/>
        <phase duration="3"  state="gyrrrgrrrrrrgyyrrrgrrrrrrrrrr"/>
        <phase duration="2"  state="grrrrgrrrrrrgrrrrrgrrrrrrrrrr"/>
        <phase duration="20" state="grGGGgrrrrrrgrrGGGgrrrrrrrrrr"/>
        <phase duration="3"  state="gryyygrrrrrrgrryyygrrrrrrrrrr"/>
        <phase duration="2"  state="grrrrgrrrrrrgrrrrrgrrrrrrrrrr"/>
    </tlLogic>
    <tlLogic id="A5" type="static" programID="0" offset="0">
        <phase duration="25" state="grrrrrgrrrGGGgrrrrrgrrrGGGGrGr"/>
        <phase duration="3"  state="grrrrrgrrryyygrrrrrgrrryyyrrrr"/>
        <phase duration="2"  state="grrrrrgrrrrrrgrrrrrgrrrrrrrrrr"/>
        <phase duration="20" state="grrrrrgGGGrrrgrrrrrgGGGrrrrrrr"/>
        <phase duration="3"  state="grrrrrgyyyrrrgrrrrrgyyyrrrrrrr"/>
        <phase duration="2"  state="grrrrrgrrrrrrgrrrrrgrrrrrrrrrr"/>
        <phase duration="25" state="gGGrrrgrrrrrrgGGrrrgrrrrrrrGrG"/>
        <phase duration="3"  state="gyyrrrgrrrrrrgyyrrrgrrrrrrrrrr"/>
        <phase duration="2"  state="grrrrrgrrrrrrgrrrrrgrrrrrrrrrr"/>
        <phase duration="20" state="grrGGGgrrrrrrgrrGGGgrrrrrrrrrr"/>
        <phase duration="3"  state="grryyygrrrrrrgrryyygrrrrrrrrrr"/>
        <phase duration="2"  state="grrrrrgrrrrrrgrrrrrgrrrrrrrrrr"/>
    </tlLogic>
    <tlLogic id="A6" type="static" programID="0" offset="0">
        <phase duration="25" state="grrrrgGGrrrgrrrrrgGGrrGrGr"/>
        <phase duration="3"  state="grrrrgyyrrrgrrrrrgyyrrrrrr"/>
        <phase duration="2"  state="grrrrgrrrrrgrrrrrgrrrrrrrr"/>
        <phase duration="20" state="grrrrgrrGGGgrrrrrgrrGGrrrr"/>
        <phase duration="3"  state="grrrrgrryyygrrrrrgrryyrrrr"/>
        <phase duration="2"  state="grrrrgrrrrrgrrrrrgrrrrrrrr"/>
        <phase duration="25" state="gGGrrgrrrrrgGGrrrgrrrrrGrG"/>
        <phase duration="3"  state="gyyrrgrrrrrgyyrrrgrrrrrrrr"/>
        <phase duration="2"  state="grrrrgrrrrrgrrrrrgrrrrrrrr"/>
        <phase duration="20" state="grrGGgrrrrrgrrGGGgrrrrrrrr"/>
        <phase duration="3"  state="grryygrrrrrgrryyygrrrrrrrr"/>
        <phase duration="2"  state="grrrrgrrrrrgrrrrrgrrrrrrrr"/>
    </tlLogic>
    <tlLogic id="A7" type="static" programID="0" offset="0">
        <phase duration="25" state="grrrrrrgGGrrgrrrrgGGrrrGrGr"/>
        <phase duration="3"  state="grrrrrrgyyrrgrrrrgyyrrrrrrr"/>
        <phase duration="2"  state="grrrrrrgrrrrgrrrrgrrrrrrrrr"/>
        <phase duration="20" state="grrrrrrgrrGGgrrrrgrrGGGrrrr"/>
        <phase duration="3"  state="grrrrrrgrryygrrrrgrryyyrrrr"/>
        <phase duration="2"  state="grrrrrrgrrrrgrrrrgrrrrrrrrr"/>
        <phase duration="25" state="gGGGrrrgrrrrgGGrrgrrrrrrGrG"/>
        <phase duration="3"  state="gyyyrrrgrrrrgyyrrgrrrrrrrrr"/>
        <phase duration="2"  state="grrrrrrgrrrrgrrrrgrrrrrrrrr"/>
        <phase duration="20" state="grrrGGGgrrrrgrrGGgrrrrrrrrr"/>
        <phase duration="3"  state="grrryyygrrrrgrryygrrrrrrrrr"/>
        <phase duration="2"  state="grrrrrrgrrrrgrrrrgrrrrrrrrr"/>
    </tlLogic>
    <tlLogic id="B0" type="static" programID="0" offset="0">
        <phase duration="25" state="grrrrgGGrrgrrrrrgGGGrrrGrGr"/>
        <phase duration="3"  state="grrrrgyyrrgrrrrrgyyyrrrrrrr"/>
        <phase duration="2"  state="grrrrgrrrrgrrrrrgrrrrrrrrrr"/>
        <phase duration="20" state="grrrrgrrGGgrrrrrgrrrGGGrrrr"/>
        <phase duration="3"  state="grrrrgrryygrrrrrgrrryyyrrrr"/>
        <phase duration="2"  state="grrrrgrrrrgrrrrrgrrrrrrrrrr"/>
        <phase duration="25" state="gGrrrgrrrrgGGrrrgrrrrrrrGrG"/>
        <phase duration="3"  state="gyrrrgrrrrgyyrrrgrrrrrrrrrr"/>
        <phase duration="2"  state="grrrrgrrrrgrrrrrgrrrrrrrrrr"/>
        <phase duration="20" state="grGGGgrrrrgrrGGGgrrrrrrrrrr"/>
        <phase duration="3"  state="gryyygrrrrgrryyygrrrrrrrrrr"/>
        <phase duration="2"  state="grrrrgrrrrgrrrrrgrrrrrrrrrr"/>
    </tlLogic>
    <tlLogic id="B1" type="static" programID="0" offset="0">
        <phase duration="25" state="gGGrrgrrrrgGGrrgrrrrGrG"/>
        <phase duration="3"  state="gyyrrgrrrrgyyrrgrrrrrrr"/>
        <phase duration="2"  state="grrrrgrrrrgrrrrgrrrrrrr"/>
        <phase duration="20" state="grrGGgrrrrgrrGGgrrrrrrr"/>
        <phase duration="3"  state="grryygrrrrgrryygrrrrrrr"/>
        <phase duration="2"  state="grrrrgrrrrgrrrrgrrrrrrr"/>
        <phase duration="25" state="grrrrgGGrrgrrrrgGrrGrGr"/>
        <phase duration="3"  state="grrrrgyyrrgrrrrgyrrrrrr"/>
        <phase duration="2"  state="grrrrgrrrrgrrrrgrrrrrrr"/>
        <phase duration="20" state="grrrrgrrGGgrrrrgrGGrrrr"/>
        <phase duration="3"  state="grrrrgrryygrrrrgryyrrrr"/>
        <phase duration="2"  state="grrrrgrrrrgrrrrgrrrrrrr"/>
    </tlLogic>
    <tlLogic id="B2" type="static" programID="0" offset="0">
        <phase duration="30" state="GGrrgrrrgGGrGr"/>
        <phase duration="3"  state="yyrrgrrrgyyrrr"/>
        <phase duration="2"  state="rrrrgrrrgrrrrr"/>
        <phase duration="30" state="rrGGgrrrgrrrrr"/>
        <phase duration="3"  state="rryygrrrgrrrrr"/>
        <phase duration="2"  state="rrrrgrrrgrrrrr"/>
        <phase duration="35" state="rrrrgGGGgrrGrG"/>
        <phase duration="3"  state="rrrrgyyygrrrrr"/>
        <phase duration="2"  state="rrrrgrrrgrrrrr"/>
    </tlLogic>
    <tlLogic id="B3" type="static" programID="0" offset="0">
        <phase duration="25" state="gGGrrgrrrgGGrrgrrrrrGrG"/>
        <phase duration="3"  state="gyyrrgrrrgyyrrgrrrrrrrr"/>
        <phase duration="2"  state="grrrrgrrrgrrrrgrrrrrrrr"/>
        <phase duration="20" state="grrGGgrrrgrrGGgrrrrrrrr"/>
        <phase duration="3"  state="grryygrrrgrryygrrrrrrrr"/>
        <phase duration="2"  state="grrrrgrrrgrrrrgrrrrrrrr"/>
        <phase duration="25" state="grrrrgGrrgrrrrgGGrrGrGr"/>
        <phase duration="3"  state="grrrrgyrrgrrrrgyyrrrrrr"/>
        <phase duration="2"  state="grrrrgrrrgrrrrgrrrrrrrr"/>
        <phase duration="20" state="grrrrgrGGgrrrrgrrGGrrrr"/>
        <phase duration="3"  state="grrrrgryygrrrrgrryyrrrr"/>
        <phase duration="2"  state="grrrrgrrrgrrrrgrrrrrrrr"/>
    </tlLogic>
    <tlLogic id="B4" type="static" programID="0" offset="0">
        <phase duration="25" state="gGGrrgrrrrgGGrrgrrrrGrG"/>
        <phase duration="3"  state="gyyrrgrrrrgyyrrgrrrrrrr"/>
        <phase duration="2"  state="grrrrgrrrrgrrrrgrrrrrrr"/>
        <phase duration="20" state="grrGGgrrrrgrrGGgrrrrrrr"/>
        <phase duration="3"  state="grryygrrrrgrryygrrrrrrr"/>
        <phase duration="2"  state="grrrrgrrrrgrrrrgrrrrrrr"/>
        <phase duration="25" state="grrrrgGGrrgrrrrgGrrGrGr"/>
        <phase duration="3"  state="grrrrgyyrrgrrrrgyrrrrrr"/>
        <phase duration="2"  state="grrrrgrrrrgrrrrgrrrrrrr"/>
        <phase duration="20" state="grrrrgrrGGgrrrrgrGGrrrr"/>
        <phase duration="3"  state="grrrrgrryygrrrrgryyrrrr"/>
        <phase duration="2"  state="grrrrgrrrrgrrrrgrrrrrrr"/>
    </tlLogic>
    <tlLogic id="B5" type="static" programID="0" offset="0">
        <phase duration="30" state="gGGGGGrrrgrrrrrG"/>
        <phase duration="3"  state="gyyyyyrrrgrrrrrr"/>
        <phase duration="2"  state="grrrrrrrrgrrrrrr"/>
        <phase duration="30" state="grrrrrGGGgrrrrrr"/>
        <phase duration="3"  state="grrrrryyygrrrrrr"/>
        <phase duration="2"  state="grrrrrrrrgrrrrrr"/>
        <phase duration="35" state="grrrrrrrrgGGGGGr"/>
        <phase duration="3"  state="grrrrrrrrgyyyrrr"/>
        <phase duration="2"  state="grrrrrrrrgrrrrrr"/>
    </tlLogic>
    <tlLogic id="B6" type="static" programID="0" offset="0">
        <phase duration="30" state="GGrrrgrrrgGGGrGr"/>
        <phase duration="3"  state="yyrrrgrrrgyyyrrr"/>
        <phase duration="2"  state="rrrrrgrrrgrrrrrr"/>
        <phase duration="30" state="rrGGGgrrrgrrrrrr"/>
        <phase duration="3"  state="rryyygrrrgrrrrrr"/>
        <phase duration="2"  state="rrrrrgrrrgrrrrrr"/>
        <phase duration="35" state="rrrrrgGGGgrrrGrG"/>
        <phase duration="3"  state="rrrrrgyyygrrrrrr"/>
        <phase duration="2"  state="rrrrrgrrrgrrrrrr"/>
    </tlLogic>
    <tlLogic id="B7" type="static" programID="0" offset="0">
        <phase duration="25" state="grrrrrgrrrGGGgrrrrrgrrrGGGGrGr"/>
        <phase duration="3"  state="grrrrrgrrryyygrrrrrgrrryyyrrrr"/>
        <phase duration="2"  state="grrrrrgrrrrrrgrrrrrgrrrrrrrrrr"/>
        <phase duration="20" state="grrrrrggggrrrgrrrrrggggrrrGrGr"/>
        <phase duration="3"  state="grrrrrgyyyrrrgrrrrrgyyyrrrrrrr"/>
        <phase duration="2"  state="grrrrrgrrrrrrgrrrrrgrrrrrrrrrr"/>
        <phase duration="25" state="gGGrrrgrrrrrrgGGrrrgrrrrrrrGrG"/>
        <phase duration="3"  state="gyyrrrgrrrrrrgyyrrrgrrrrrrrrrr"/>
        <phase duration="2"  state="grrrrrgrrrrrrgrrrrrgrrrrrrrrrr"/>
        <phase duration="20" state="grrGGGgrrrrrrgrrGGGgrrrrrrrrrr"/>
        <phase duration="3"  state="grryyygrrrrrrgrryyygrrrrrrrrrr"/>
        <phase duration="2"  state="grrrrrgrrrrrrgrrrrrgrrrrrrrrrr"/>
    </tlLogic>
    <tlLogic id="C0" type="static" programID="0" offset="0">
        <phase duration="25" state="gGGGrrrgrrrrgGGGrrrgrrrrrrGrG"/>
        <phase duration="3"  state="gyyyrrrgrrrrgyyyrrrgrrrrrrrrr"/>
        <phase duration="2"  state="grrrrrrgrrrrgrrrrrrgrrrrrrrrr"/>
        <phase duration="20" state="grrrGGGgrrrrgrrrGGGgrrrrrrrrr"/>
        <phase duration="3"  state="grrryyygrrrrgrrryyygrrrrrrrrr"/>
        <phase duration="2"  state="grrrrrrgrrrrgrrrrrrgrrrrrrrrr"/>
        <phase duration="25" state="grrrrrrgGrrrgrrrrrrgGGrrrGrGr"/>
        <phase duration="3"  state="grrrrrrgyrrrgrrrrrrgyyrrrrrrr"/>
        <phase duration="2"  state="grrrrrrgrrrrgrrrrrrgrrrrrrrrr"/>
        <phase duration="20" state="grrrrrrgrGGGgrrrrrrgrrGGGrrrr"/>
        <phase duration="3"  state="grrrrrrgryyygrrrrrrgrryyyrrrr"/>
        <phase duration="2"  state="grrrrrrgrrrrgrrrrrrgrrrrrrrrr"/>
    </tlLogic>
    <tlLogic id="C1" type="static" programID="0" offset="0">
        <phase duration="25" state="grrrgGrrgrrrrgGGrrGrGr"/>
        <phase duration="3"  state="grrrgyrrgrrrrgyyrrrrrr"/>
        <phase duration="2"  state="grrrgrrrgrrrrgrrrrrrrr"/>
        <phase duration="20" state="grrrgrGGgrrrrgrrGGrrrr"/>
        <phase duration="3"  state="grrrgryygrrrrgrryyrrrr"/>
        <phase duration="2"  state="grrrgrrrgrrrrgrrrrrrrr"/>
        <phase duration="25" state="gGrrgrrrgGGrrgrrrrrGrG"/>
        <phase duration="3"  state="gyrrgrrrgyyrrgrrrrrrrr"/>
        <phase duration="2"  state="grrrgrrrgrrrrgrrrrrrrr"/>
        <phase duration="20" state="grGGgrrrgrrGGgrrrrrrrr"/>
        <phase duration="3"  state="gryygrrrgrryygrrrrrrrr"/>
        <phase duration="2"  state="grrrgrrrgrrrrgrrrrrrrr"/>
    </tlLogic>
    <tlLogic id="C2" type="static" programID="0" offset="0">
        <phase duration="20" state="gGGrrrrgrrrrrG"/>
        <phase duration="3"  state="gyyrrrrgrrrrrr"/>
        <phase duration="2"  state="grrrrrrgrrrrrr"/>
        <phase duration="25" state="grrGGGGgrrrrrr"/>
        <phase duration="3"  state="grryyyygrrrrrr"/>
        <phase duration="2"  state="grrrrrrgrrrrrr"/>
        <phase duration="20" state="grrrrrrgGGGGGr"/>
        <phase duration="3"  state="grrrrrrgyyyrrr"/>
        <phase duration="2"  state="grrrrrrgrrrrrr"/>
    </tlLogic>
    <tlLogic id="C3" type="static" programID="0" offset="0">
        <phase duration="25" state="grrrGGrrgrrrgGGrGrGr"/>
        <phase duration="3"  state="grrryyrrgrrrgyyrrrrr"/>
        <phase duration="2"  state="grrrrrrrgrrrgrrrrrrr"/>
        <phase duration="20" state="grrrrrGGgrrrgrrGrrrr"/>
        <phase duration="3"  state="grrrrryygrrrgrryrrrr"/>
        <phase duration="2"  state="grrrrrrrgrrrgrrrrrrr"/>
        <phase duration="20" state="gGGgrrrrgrrrgrrrrGrG"/>
        <phase duration="3"  state="gyyyrrrrgrrrgrrrrrrr"/>
        <phase duration="2"  state="grrrrrrrgrrrgrrrrrrr"/>
        <phase duration="25" state="grrrrrrrgggGgrrrGGrG"/>
        <phase duration="3"  state="grrrrrrrgyyygrrrrrrr"/>
        <phase duration="2"  state="grrrrrrrgrrrgrrrrrrr"/>
    </tlLogic>
    <tlLogic id="C4" type="static" programID="0" offset="0">
        <phase duration="25" state="gGGrrrgrrrgGGrrGrGr"/>
        <phase duration="3"  state="gyyrrrgrrrgyyrrrrrr"/>
        <phase duration="2"  state="grrrrrgrrrgrrrrrrrr"/>
        <phase duration="15" state="grrGGGgrrrgrrGGrrrr"/>
        <phase duration="3"  state="grryyygrrrgrryyrrrr"/>
        <phase duration="2"  state="grrrrrgrrrgrrrrrrrr"/>
        <phase duration="25" state="grrrrrgGGGgrrrrrGrG"/>
        <phase duration="3"  state="grrrrrgyyygrrrrrrrr"/>
        <phase duration="2"  state="grrrrrgrrrgrrrrrrrr"/>
    </tlLogic>
    <tlLogic id="C5" type="static" programID="0" offset="0">
        <phase duration="25" state="grrrrgGGrrgrrrgGGrrGrGr"/>
        <phase duration="3"  state="grrrrgyyrrgrrrgyyrrrrrr"/>
        <phase duration="2"  state="grrrrgrrrrgrrrgrrrrrrrr"/>
        <phase duration="20" state="grrrrgrrGGgrrrgrrGGrrrr"/>
        <phase duration="3"  state="grrrrgrryygrrrgrryyrrrr"/>
        <phase duration="2"  state="grrrrgrrrrgrrrgrrrrrrrr"/>
        <phase duration="25" state="gGGrrgrrrrgGrrgrrrrrGrG"/>
        <phase duration="3"  state="gyyrrgrrrrgyrrgrrrrrrrr"/>
        <phase duration="2"  state="grrrrgrrrrgrrrgrrrrrrrr"/>
        <phase duration="20" state="grrGGgrrrrgrGGgrrrrrrrr"/>
        <phase duration="3"  state="grryygrrrrgryygrrrrrrrr"/>
        <phase duration="2"  state="grrrrgrrrrgrrrgrrrrrrrr"/>
    </tlLogic>
    <tlLogic id="C6" type="static" programID="0" offset="0">
        <phase duration="25" state="gGGrrrgrrrrrgGGrrgrrrrrGrG"/>
        <phase duration="3"  state="gyyrrrgrrrrrgyyrrgrrrrrrrr"/>
        <phase duration="2"  state="grrrrrgrrrrrgrrrrgrrrrrrrr"/>
        <phase duration="20" state="grrGGGgrrrrrgrrGGgrrrrrrrr"/>
        <phase duration="3"  state="grryyygrrrrrgrryygrrrrrrrr"/>
        <phase duration="2"  state="grrrrrgrrrrrgrrrrgrrrrrrrr"/>
        <phase duration="25" state="grrrrrgGGrrrgrrrrgGGrrGrGr"/>
        <phase duration="3"  state="grrrrrgyyrrrgrrrrgyyrrrrrr"/>
        <phase duration="2"  state="grrrrrgrrrrrgrrrrgrrrrrrrr"/>
        <phase duration="20" state="grrrrrgrrGGGgrrrrgrrGGrrrr"/>
        <phase duration="3"  state="grrrrrgrryyygrrrrgrryyrrrr"/>
        <phase duration="2"  state="grrrrrgrrrrrgrrrrgrrrrrrrr"/>
    </tlLogic>
    <tlLogic id="C7" type="static" programID="0" offset="0">
        <phase duration="25" state="gGGrrrgrrrrrgGGGrrrgrrrrrrGrG"/>
        <phase duration="3"  state="gyyrrrgrrrrrgyyyrrrgrrrrrrrrr"/>
        <phase duration="2"  state="grrrrrgrrrrrgrrrrrrgrrrrrrrrr"/>
        <phase duration="20" state="grrGGGgrrrrrgrrrGGGgrrrrrrrrr"/>
        <phase duration="3"  state="grryyygrrrrrgrrryyygrrrrrrrrr"/>
        <phase duration="2"  state="grrrrrgrrrrrgrrrrrrgrrrrrrrrr"/>
        <phase duration="25" state="grrrrrgGGrrrgrrrrrrgGGrrrGrGr"/>
        <phase duration="3"  state="grrrrrgyyrrrgrrrrrrgyyrrrrrrr"/>
        <phase duration="2"  state="grrrrrgrrrrrgrrrrrrgrrrrrrrrr"/>
        <phase duration="20" state="grrrrrgrrGGGgrrrrrrgrrGGGrrrr"/>
        <phase duration="3"  state="grrrrrgrryyygrrrrrrgrryyyrrrr"/>
        <phase duration="2"  state="grrrrrgrrrrrgrrrrrrgrrrrrrrrr"/>
    </tlLogic>
    <tlLogic id="D0" type="static" programID="0" offset="0">
        <phase duration="25" state="grrrrgGGGrrrgrrrrrgGGrrrGrGr"/>
        <phase duration="3"  state="grrrrgyyyrrrgrrrrrgyyrrrrrrr"/>
        <phase duration="2"  state="grrrrgrrrrrrgrrrrrgrrrrrrrrr"/>
        <phase duration="20" state="grrrrgrrrGGGgrrrrrgrrGGGrrrr"/>
        <phase duration="3"  state="grrrrgrrryyygrrrrrgrryyyrrrr"/>
        <phase duration="2"  state="grrrrgrrrrrrgrrrrrgrrrrrrrrr"/>
        <phase duration="25" state="gGrrrgrrrrrrgGGrrrgrrrrrrGrG"/>
        <phase duration="3"  state="gyrrrgrrrrrrgyyrrrgrrrrrrrrr"/>
        <phase duration="2"  state="grrrrgrrrrrrgrrrrrgrrrrrrrrr"/>
        <phase duration="20" state="grGGGgrrrrrrgrrGGGgrrrrrrrrr"/>
        <phase duration="3"  state="gryyygrrrrrrgrryyygrrrrrrrrr"/>
        <phase duration="2"  state="grrrrgrrrrrrgrrrrrgrrrrrrrrr"/>
    </tlLogic>
    <tlLogic id="D1" type="static" programID="0" offset="0">
        <phase duration="25" state="grrrrgGGrrgrrrrgGGrrGrGr"/>
        <phase duration="3"  state="grrrrgyyrrgrrrrgyyrrrrrr"/>
        <phase duration="2"  state="grrrrgrrrrgrrrrgrrrrrrrr"/>
        <phase duration="20" state="grrrrgrrGGgrrrrgrrGGrrrr"/>
        <phase duration="3"  state="grrrrgrryygrrrrgrryyrrrr"/>
        <phase duration="2"  state="grrrrgrrrrgrrrrgrrrrrrrr"/>
        <phase duration="25" state="gGGrrgrrrrgGGrrgrrrrrGrG"/>
        <phase duration="3"  state="gyyrrgrrrrgyyrrgrrrrrrrr"/>
        <phase duration="2"  state="grrrrgrrrrgrrrrgrrrrrrrr"/>
        <phase duration="20" state="grrGGgrrrrgrrGGgrrrrrrrr"/>
        <phase duration="3"  state="grryygrrrrgrryygrrrrrrrr"/>
        <phase duration="2"  state="grrrrgrrrrgrrrrgrrrrrrrr"/>
    </tlLogic>
    <tlLogic id="D2" type="static" programID="0" offset="0">
        <phase duration="25" state="gGGrrrgrrrgGGrrGrGr"/>
        <phase duration="3"  state="gyyrrrgrrrgyyrrrrrr"/>
        <phase duration="2"  state="grrrrrgrrrgrrrrrrrr"/>
        <phase duration="18" state="grrGGGgrrrgrrGGrrrr"/>
        <phase duration="3"  state="grryyygrrrgrryyrrrr"/>
        <phase duration="2"  state="grrrrrgrrrgrrrrrrrr"/>
        <phase duration="22" state="grrrrrgGGGgrrrrrGrG"/>
        <phase duration="3"  state="grrrrrgyyygrrrrrrrr"/>
        <phase duration="2"  state="grrrrrgrrrgrrrrrrrr"/>
    </tlLogic>
    <tlLogic id="D3" type="static" programID="0" offset="0">
        <phase duration="25" state="GGGGrrrrrG"/>
        <phase duration="3"  state="yyyyrrrrrr"/>
        <phase duration="2"  state="rrrrrrrrrr"/>
        <phase duration="25" state="rrrrGGGGGr"/>
        <phase duration="3"  state="rrrryyyyrr"/>
        <phase duration="2"  state="rrrrrrrrrr"/>
    </tlLogic>
    <tlLogic id="D4" type="static" programID="0" offset="0">
        <phase duration="25" state="GGGGrrrrGr"/>
        <phase duration="3"  state="yyyyrrrrrr"/>
        <phase duration="2"  state="rrrrrrrrrr"/>
        <phase duration="25" state="rrrrGGGGrG"/>
        <phase duration="3"  state="rrrryyyyrr"/>
        <phase duration="2"  state="rrrrrrrrrr"/>
    </tlLogic>
    <tlLogic id="D5" type="static" programID="0" offset="0">
        <phase duration="25" state="GGrrrgrrrgGrgrrrGrG"/>
        <phase duration="3"  state="yyrrrgrrrgyrgrrrrrr"/>
        <phase duration="2"  state="rrrrrgrrrgrrgrrrrrr"/>
        <phase duration="20" state="rrGGGgrrrgrGgrrrrrr"/>
        <phase duration="3"  state="rryyygrrrgrygrrrrrr"/>
        <phase duration="2"  state="rrrrrgrrrgrrgrrrrrr"/>
        <phase duration="25" state="rrrrrgGGGgrrgrrGrrG"/>
        <phase duration="3"  state="rrrrrgyyygrrgrrrrrr"/>
        <phase duration="2"  state="rrrrrgrrrgrrgrrrrrr"/>
        <phase duration="20" state="rrrrrgrrrgrrgGGrrGr"/>
        <phase duration="3"  state="rrrrrgrrrgrrgyyrrrr"/>
        <phase duration="2"  state="rrrrrgrrrgrrgrrrrrr"/>
    </tlLogic>
    <tlLogic id="D6" type="static" programID="0" offset="0">
        <phase duration="25" state="gGrrgrrrrgGGrrgrrrrrGrG"/>
        <phase duration="3"  state="gyrrgrrrrgyyrrgrrrrrrrr"/>
        <phase duration="2"  state="grrrgrrrrgrrrrgrrrrrrrr"/>
        <phase duration="20" state="grGGgrrrrgrrGGgrrrrrrrr"/>
        <phase duration="3"  state="gryygrrrrgrryygrrrrrrrr"/>
        <phase duration="2"  state="grrrgrrrrgrrrrgrrrrrrrr"/>
        <phase duration="25" state="grrrgGGrrgrrrrgGGrrGrGr"/>
        <phase duration="3"  state="grrrgyyrrgrrrrgyyrrrrrr"/>
        <phase duration="2"  state="grrrgrrrrgrrrrgrrrrrrrr"/>
        <phase duration="20" state="grrrgrrGGgrrrrgrrGGrrrr"/>
        <phase duration="3"  state="grrrgrryygrrrrgrryyrrrr"/>
        <phase duration="2"  state="grrrgrrrrgrrrrgrrrrrrrr"/>
    </tlLogic>
    <tlLogic id="D7" type="static" programID="0" offset="0">
        <phase duration="25" state="grrrrrgGGGrrrgrrrrrgGGrrGrGr"/>
        <phase duration="3"  state="grrrrrgyyyrrrgrrrrrgyyrrrrrr"/>
        <phase duration="2"  state="grrrrrgrrrrrrgrrrrrgrrrrrrrr"/>
        <phase duration="20" state="grrrrrgrrrGGGgrrrrrgrrGGrrrr"/>
        <phase duration="3"  state="grrrrrgrrryyygrrrrrgrryyrrrr"/>
        <phase duration="2"  state="grrrrrgrrrrrrgrrrrrgrrrrrrrr"/>
        <phase duration="25" state="gGGrrrgrrrrrrgGGrrrgrrrrrGrG"/>
        <phase duration="3"  state="gyyrrrgrrrrrrgyyrrrgrrrrrrrr"/>
        <phase duration="2"  state="grrrrrgrrrrrrgrrrrrgrrrrrrrr"/>
        <phase duration="20" state="grrGGGgrrrrrrgrrGGGgrrrrrrrr"/>
        <phase duration="3"  state="grryyygrrrrrrgrryyygrrrrrrrr"/>
        <phase duration="2"  state="grrrrrgrrrrrrgrrrrrgrrrrrrrr"/>
    </tlLogic>
    <tlLogic id="E0" type="static" programID="0" offset="0">
        <phase duration="25" state="gGGrrgrrrrgGGGrrrgrrrrrrGrG"/>
        <phase duration="3"  state="gyyrrgrrrrgyyyrrrgrrrrrrrrr"/>
        <phase duration="2"  state="grrrrgrrrrgrrrrrrgrrrrrrrrr"/>
        <phase duration="20" state="grrGGgrrrrgrrrGGGgrrrrrrrrr"/>
        <phase duration="3"  state="grryygrrrrgrrryyygrrrrrrrrr"/>
        <phase duration="2"  state="grrrrgrrrrgrrrrrrgrrrrrrrrr"/>
        <phase duration="25" state="grrrrgGrrrgrrrrrrgGGrrrGrGr"/>
        <phase duration="3"  state="grrrrgyrrrgrrrrrrgyyrrrrrrr"/>
        <phase duration="2"  state="grrrrgrrrrgrrrrrrgrrrrrrrrr"/>
        <phase duration="20" state="grrrrgrGGGgrrrrrrgrrGGGrrrr"/>
        <phase duration="3"  state="grrrrgryyygrrrrrrgrryyyrrrr"/>
        <phase duration="2"  state="grrrrgrrrrgrrrrrrgrrrrrrrrr"/>
    </tlLogic>
    <tlLogic id="E1" type="static" programID="0" offset="0">
        <phase duration="25" state="gGGGGGrrgrrrrrG"/>
        <phase duration="3"  state="gyyyyyrrgrrrrrr"/>
        <phase duration="2"  state="grrrrrrrgrrrrrr"/>
        <phase duration="20" state="grrrrrGGgrrrrrr"/>
        <phase duration="3"  state="grrrrryygrrrrrr"/>
        <phase duration="2"  state="grrrrrrrgrrrrrr"/>
        <phase duration="20" state="grrrrrrrgGGGGGr"/>
        <phase duration="3"  state="grrrrrrrgyyyrrr"/>
        <phase duration="2"  state="grrrrrrrgrrrrrr"/>
    </tlLogic>
    <tlLogic id="E2" type="static" programID="0" offset="0">
        <phase duration="25" state="GGGrrrGGGGrGr"/>
        <phase duration="3"  state="yyyrrryyyyrrr"/>
        <phase duration="2"  state="rrrrrrrrrrrrr"/>
        <phase duration="25" state="rrrgGGrrrrGrG"/>
        <phase duration="3"  state="rrryyyrrrrrrr"/>
        <phase duration="2"  state="rrrrrrrrrrrrr"/>
    </tlLogic>
    <tlLogic id="E3" type="static" programID="0" offset="0">
        <phase duration="25" state="GGGrrrrG"/>
        <phase duration="3"  state="yyyrrrrr"/>
        <phase duration="2"  state="rrrrrrrr"/>
        <phase duration="25" state="rrrgGGGr"/>
        <phase duration="3"  state="rrryyyrr"/>
        <phase duration="2"  state="rrrrrrrr"/>
    </tlLogic>
    <tlLogic id="E4" type="static" programID="0" offset="0">
        <phase duration="25" state="gGGrrrrG"/>
        <phase duration="3"  state="yyyrrrrr"/>
        <phase duration="2"  state="rrrrrrrr"/>
        <phase duration="25" state="rrrGGGGr"/>
        <phase duration="3"  state="rrryyyrr"/>
        <phase duration="2"  state="rrrrrrrr"/>
    </tlLogic>
    <tlLogic id="E5" type="static" programID="0" offset="0">
        <phase duration="25" state="grrrrgGGrrgGGrrGrGr"/>
        <phase duration="3"  state="grrrrgyyrrgyyrrrrrr"/>
        <phase duration="2"  state="grrrrgrrrrgrrrrrrrr"/>
        <phase duration="15" state="grrrrgrrGGgrrGGrrrr"/>
        <phase duration="3"  state="grrrrgrryygrryyrrrr"/>
        <phase duration="2"  state="grrrrgrrrrgrrrrrrrr"/>
        <phase duration="25" state="gGGGGgrrrrgrrrrrGrG"/>
        <phase duration="3"  state="gyyyygrrrrgrrrrrrrr"/>
        <phase duration="2"  state="grrrrgrrrrgrrrrrrrr"/>
    </tlLogic>
    <tlLogic id="E6" type="static" programID="0" offset="0">
        <phase duration="25" state="gGrrgrrrrgGGrrgrrrrGrG"/>
        <phase duration="3"  state="gyrrgrrrrgyyrrgrrrrrrr"/>
        <phase duration="2"  state="grrrgrrrrgrrrrgrrrrrrr"/>
        <phase duration="20" state="grGGgrrrrgrrGGgrrrrrrr"/>
        <phase duration="3"  state="gryygrrrrgrryygrrrrrrr"/>
        <phase duration="2"  state="grrrgrrrrgrrrrgrrrrrrr"/>
        <phase duration="25" state="grrrgGGrrgrrrrgGrrGrGr"/>
        <phase duration="3"  state="grrrgyyrrgrrrrgyrrrrrr"/>
        <phase duration="2"  state="grrrgrrrrgrrrrgrrrrrrr"/>
        <phase duration="20" state="grrrgrrGGgrrrrgrGGrrrr"/>
        <phase duration="3"  state="grrrgrryygrrrrgryyrrrr"/>
        <phase duration="2"  state="grrrgrrrrgrrrrgrrrrrrr"/>
    </tlLogic>
    <tlLogic id="E7" type="static" programID="0" offset="0">
        <phase duration="25" state="grrrrgGGGrrrgrrrrgGGrrrGrGr"/>
        <phase duration="3"  state="grrrrgyyyrrrgrrrrgyyrrrrrrr"/>
        <phase duration="2"  state="grrrrgrrrrrrgrrrrgrrrrrrrrr"/>
        <phase duration="20" state="grrrrgrrrGGGgrrrrgrrGGGrrrr"/>
        <phase duration="3"  state="grrrrgrrryyygrrrrgrryyyrrrr"/>
        <phase duration="2"  state="grrrrgrrrrrrgrrrrgrrrrrrrrr"/>
        <phase duration="25" state="gGGrrgrrrrrrgGrrrgrrrrrrGrG"/>
        <phase duration="3"  state="gyyrrgrrrrrrgyrrrgrrrrrrrrr"/>
        <phase duration="2"  state="grrrrgrrrrrrgrrrrgrrrrrrrrr"/>
        <phase duration="20" state="grrGGgrrrrrrgrGGGgrrrrrrrrr"/>
        <phase duration="3"  state="grryygrrrrrrgryyygrrrrrrrrr"/>
        <phase duration="2"  state="grrrrgrrrrrrgrrrrgrrrrrrrrr"/>