<?xml version="1.0" encoding="UTF-8"?>
<connections>

    <!-- ==================== INTERSECTION A0 ==================== -->
    <connection from="A1A0" to="A0A1" fromLane="5" toLane="5"/>
    <connection from="A1A0" to="A0B0" fromLane="1" toLane="1"/>
    <connection from="A1A0" to="A0bottom0" fromLane="4" toLane="3"/>
    <connection from="A1A0" to="A0bottom0" fromLane="5" toLane="4"/>
    <connection from="A1A0" to="A0left0" fromLane="2" toLane="2"/>
    <connection from="A1A0" to="A0left0" fromLane="3" toLane="3"/>
    <connection from="B0A0" to="A0A1" fromLane="4" toLane="4"/>
    <connection from="B0A0" to="A0A1" fromLane="5" toLane="5"/>
    <connection from="B0A0" to="A0B0" fromLane="5" toLane="4"/>
    <connection from="B0A0" to="A0bottom0" fromLane="2" toLane="2"/>
    <connection from="B0A0" to="A0bottom0" fromLane="3" toLane="3"/>
    <connection from="B0A0" to="A0left0" fromLane="1" toLane="1"/>
    <connection from="bottom0A0" to="A0A1" fromLane="1" toLane="1"/>
    <connection from="bottom0A0" to="A0B0" fromLane="2" toLane="2"/>
    <connection from="bottom0A0" to="A0B0" fromLane="3" toLane="3"/>
    <connection from="bottom0A0" to="A0bottom0" fromLane="4" toLane="4"/>
    <connection from="bottom0A0" to="A0left0" fromLane="4" toLane="4"/>
    <connection from="left0A0" to="A0A1" fromLane="2" toLane="2"/>
    <connection from="left0A0" to="A0A1" fromLane="3" toLane="3"/>
    <connection from="left0A0" to="A0B0" fromLane="4" toLane="4"/>
    <connection from="left0A0" to="A0bottom0" fromLane="1" toLane="1"/>
    <connection from="left0A0" to="A0left0" fromLane="4" toLane="4"/>

    <!-- ==================== INTERSECTION A1 ==================== -->
    <connection from="A0A1" to="A1A0" fromLane="5" toLane="5"/>
    <connection from="A0A1" to="A1A2" fromLane="2" toLane="2"/>
    <connection from="A0A1" to="A1A2" fromLane="3" toLane="3"/>
    <connection from="A0A1" to="A1B1" fromLane="4" toLane="3"/>
    <connection from="A0A1" to="A1B1" fromLane="5" toLane="4"/>
    <connection from="A0A1" to="A1bottom1" fromLane="1" toLane="1"/>
    <connection from="A2A1" to="A1A0" fromLane="2" toLane="2"/>
    <connection from="A2A1" to="A1A0" fromLane="3" toLane="3"/>
    <connection from="A2A1" to="A1A2" fromLane="4" toLane="4"/>
    <connection from="A2A1" to="A1B1" fromLane="1" toLane="1"/>
    <connection from="A2A1" to="A1bottom1" fromLane="4" toLane="3"/>
    <connection from="B1A1" to="A1A0" fromLane="1" toLane="1"/>
    <connection from="B1A1" to="A1A2" fromLane="3" toLane="4"/>
    <connection from="B1A1" to="A1B1" fromLane="3" toLane="4"/>
    <connection from="B1A1" to="A1bottom1" fromLane="2" toLane="2"/>
    <connection from="bottom1A1" to="A1A0" fromLane="4" toLane="4"/>
    <connection from="bottom1A1" to="A1A0" fromLane="4" toLane="5"/>
    <connection from="bottom1A1" to="A1A2" fromLane="1" toLane="1"/>
    <connection from="bottom1A1" to="A1B1" fromLane="2" toLane="2"/>
    <connection from="bottom1A1" to="A1B1" fromLane="3" toLane="3"/>
    <connection from="bottom1A1" to="A1bottom1" fromLane="4" toLane="3"/>

    <!-- ==================== INTERSECTION A2 ==================== -->
    <connection from="A1A2" to="A2A1" fromLane="4" toLane="4"/>
    <connection from="A1A2" to="A2A3" fromLane="2" toLane="2"/>
    <connection from="A1A2" to="A2A3" fromLane="3" toLane="3"/>
    <connection from="A1A2" to="A2B2" fromLane="4" toLane="3"/>
    <connection from="A1A2" to="A2bottom2" fromLane="1" toLane="1"/>
    <connection from="A3A2" to="A2A1" fromLane="2" toLane="2"/>
    <connection from="A3A2" to="A2A1" fromLane="3" toLane="3"/>
    <connection from="A3A2" to="A2A3" fromLane="5" toLane="5"/>
    <connection from="A3A2" to="A2B2" fromLane="1" toLane="1"/>
    <connection from="A3A2" to="A2bottom2" fromLane="4" toLane="2"/>
    <connection from="A3A2" to="A2bottom2" fromLane="5" toLane="3"/>
    <connection from="B2A2" to="A2A1" fromLane="1" toLane="1"/>
    <connection from="B2A2" to="A2A3" fromLane="3" toLane="4"/>
    <connection from="B2A2" to="A2A3" fromLane="3" toLane="5"/>
    <connection from="B2A2" to="A2B2" fromLane="3" toLane="3"/>
    <connection from="B2A2" to="A2bottom2" fromLane="2" toLane="2"/>
    <connection from="bottom2A2" to="A2A1" fromLane="4" toLane="4"/>
    <connection from="bottom2A2" to="A2A3" fromLane="1" toLane="1"/>
    <connection from="bottom2A2" to="A2B2" fromLane="2" toLane="2"/>
    <connection from="bottom2A2" to="A2B2" fromLane="3" toLane="3"/>
    <connection from="bottom2A2" to="A2bottom2" fromLane="4" toLane="3"/>

    <!-- ==================== INTERSECTION A3 ==================== -->
    <connection from="A2A3" to="A3A2" fromLane="5" toLane="5"/>
    <connection from="A2A3" to="A3A4" fromLane="2" toLane="2"/>
    <connection from="A2A3" to="A3A4" fromLane="3" toLane="3"/>
    <connection from="A2A3" to="A3A4" fromLane="3" toLane="4"/>
    <connection from="A2A3" to="A3B3" fromLane="4" toLane="2"/>
    <connection from="A2A3" to="A3B3" fromLane="5" toLane="3"/>
    <connection from="A2A3" to="A3bottom3" fromLane="1" toLane="1"/>
    <connection from="A4A3" to="A3A2" fromLane="2" toLane="2"/>
    <connection from="A4A3" to="A3A2" fromLane="3" toLane="3"/>
    <connection from="A4A3" to="A3A4" fromLane="5" toLane="6"/>
    <connection from="A4A3" to="A3B3" fromLane="1" toLane="1"/>
    <connection from="A4A3" to="A3bottom3" fromLane="4" toLane="2"/>
    <connection from="A4A3" to="A3bottom3" fromLane="5" toLane="3"/>
    <connection from="B3A3" to="A3A2" fromLane="1" toLane="1"/>
    <connection from="B3A3" to="A3A4" fromLane="3" toLane="5"/>
    <connection from="B3A3" to="A3A4" fromLane="3" toLane="6"/>
    <connection from="B3A3" to="A3B3" fromLane="3" toLane="3"/>
    <connection from="B3A3" to="A3bottom3" fromLane="2" toLane="2"/>
    <connection from="bottom3A3" to="A3A2" fromLane="4" toLane="4"/>
    <connection from="bottom3A3" to="A3A2" fromLane="4" toLane="5"/>
    <connection from="bottom3A3" to="A3A4" fromLane="1" toLane="1"/>
    <connection from="bottom3A3" to="A3B3" fromLane="2" toLane="2"/>
    <connection from="bottom3A3" to="A3B3" fromLane="3" toLane="3"/>
    <connection from="bottom3A3" to="A3bottom3" fromLane="4" toLane="3"/>

    <!-- ==================== INTERSECTION A4 ==================== -->
    <connection from="A3A4" to="A4A3" fromLane="3" toLane="5"/>
    <connection from="A3A4" to="A4B4" fromLane="2" toLane="3"/>
    <connection from="A3A4" to="A4B4" fromLane="3" toLane="4"/>
    <connection from="A3A4" to="A4A5" fromLane="4" toLane="2"/>
    <connection from="A3A4" to="A4A5" fromLane="5" toLane="3"/>
    <connection from="A3A4" to="A4A5" fromLane="6" toLane="4"/>
    <connection from="A3A4" to="A4bottom4" fromLane="1" toLane="1"/>
    <connection from="A5A4" to="A4A3" fromLane="4" toLane="2"/>
    <connection from="A5A4" to="A4A3" fromLane="5" toLane="3"/>
    <connection from="A5A4" to="A4A3" fromLane="6" toLane="4"/>
    <connection from="A5A4" to="A4A5" fromLane="3" toLane="6"/>
    <connection from="A5A4" to="A4B4" fromLane="1" toLane="1"/>
    <connection from="A5A4" to="A4bottom4" fromLane="2" toLane="2"/>
    <connection from="A5A4" to="A4bottom4" fromLane="3" toLane="3"/>
    <connection from="B4A4" to="A4A3" fromLane="1" toLane="1"/>
    <connection from="B4A4" to="A4A5" fromLane="3" toLane="5"/>
    <connection from="B4A4" to="A4A5" fromLane="3" toLane="6"/>
    <connection from="B4A4" to="A4B4" fromLane="3" toLane="4"/>
    <connection from="B4A4" to="A4bottom4" fromLane="2" toLane="2"/>
    <connection from="bottom4A4" to="A4A3" fromLane="4" toLane="4"/>
    <connection from="bottom4A4" to="A4A3" fromLane="4" toLane="5"/>
    <connection from="bottom4A4" to="A4A5" fromLane="1" toLane="1"/>
    <connection from="bottom4A4" to="A4B4" fromLane="2" toLane="2"/>
    <connection from="bottom4A4" to="A4B4" fromLane="3" toLane="3"/>
    <connection from="bottom4A4" to="A4bottom4" fromLane="4" toLane="3"/>

    <!-- ==================== INTERSECTION A5 ==================== -->
    <connection from="A4A5" to="A5A4" fromLane="3" toLane="6"/>
    <connection from="A4A5" to="A5A6" fromLane="4" toLane="2"/>
    <connection from="A4A5" to="A5A6" fromLane="5" toLane="3"/>
    <connection from="A4A5" to="A5A6" fromLane="6" toLane="4"/>
    <connection from="A4A5" to="A5B5" fromLane="2" toLane="3"/>
    <connection from="A4A5" to="A5B5" fromLane="3" toLane="4"/>
    <connection from="A4A5" to="A5bottom5" fromLane="1" toLane="1"/>
    <connection from="A6A5" to="A5A4" fromLane="4" toLane="2"/>
    <connection from="A6A5" to="A5A4" fromLane="5" toLane="3"/>
    <connection from="A6A5" to="A5A4" fromLane="5" toLane="4"/>
    <connection from="A6A5" to="A5A6" fromLane="3" toLane="5"/>
    <connection from="A6A5" to="A5B5" fromLane="1" toLane="1"/>
    <connection from="A6A5" to="A5bottom5" fromLane="2" toLane="3"/>
    <connection from="A6A5" to="A5bottom5" fromLane="3" toLane="4"/>
    <connection from="B5A5" to="A5A4" fromLane="1" toLane="1"/>
    <connection from="B5A5" to="A5A6" fromLane="4" toLane="4"/>
    <connection from="B5A5" to="A5A6" fromLane="4" toLane="5"/>
    <connection from="B5A5" to="A5B5" fromLane="4" toLane="4"/>
    <connection from="B5A5" to="A5bottom5" fromLane="2" toLane="2"/>
    <connection from="B5A5" to="A5bottom5" fromLane="3" toLane="3"/>
    <connection from="bottom5A5" to="A5A4" fromLane="4" toLane="5"/>
    <connection from="bottom5A5" to="A5A4" fromLane="5" toLane="6"/>
    <connection from="bottom5A5" to="A5A6" fromLane="1" toLane="1"/>
    <connection from="bottom5A5" to="A5B5" fromLane="2" toLane="2"/>
    <connection from="bottom5A5" to="A5B5" fromLane="3" toLane="3"/>
    <connection from="bottom5A5" to="A5bottom5" fromLane="5" toLane="4"/>

    <!-- ==================== INTERSECTION A6 ==================== -->
    <connection from="A5A6" to="A6A5" fromLane="5" toLane="5"/>
    <connection from="A5A6" to="A6A7" fromLane="2" toLane="2"/>
    <connection from="A5A6" to="A6A7" fromLane="3" toLane="3"/>
    <connection from="A5A6" to="A6B6" fromLane="4" toLane="3"/>
    <connection from="A5A6" to="A6B6" fromLane="5" toLane="4"/>
    <connection from="A5A6" to="A6bottom6" fromLane="1" toLane="1"/>
    <connection from="A7A6" to="A6A5" fromLane="2" toLane="2"/>
    <connection from="A7A6" to="A6A5" fromLane="3" toLane="3"/>
    <connection from="A7A6" to="A6A7" fromLane="4" toLane="4"/>
    <connection from="A7A6" to="A6B6" fromLane="1" toLane="1"/>
    <connection from="A7A6" to="A6bottom6" fromLane="4" toLane="3"/>
    <connection from="B6A6" to="A6A5" fromLane="1" toLane="1"/>
    <connection from="B6A6" to="A6A7" fromLane="4" toLane="4"/>
    <connection from="B6A6" to="A6B6" fromLane="4" toLane="4"/>
    <connection from="B6A6" to="A6bottom6" fromLane="2" toLane="2"/>
    <connection from="B6A6" to="A6bottom6" fromLane="3" toLane="3"/>
    <connection from="bottom6A6" to="A6A5" fromLane="4" toLane="4"/>
    <connection from="bottom6A6" to="A6A5" fromLane="4" toLane="5"/>
    <connection from="bottom6A6" to="A6A7" fromLane="1" toLane="1"/>
    <connection from="bottom6A6" to="A6B6" fromLane="2" toLane="2"/>
    <connection from="bottom6A6" to="A6B6" fromLane="3" toLane="3"/>
    <connection from="bottom6A6" to="A6bottom6" fromLane="4" toLane="3"/>

    <!-- ==================== INTERSECTION A7 ==================== -->
    <connection from="A6A7" to="A7A6" fromLane="4" toLane="4"/>
    <connection from="A6A7" to="A7B7" fromLane="4" toLane="4"/>
    <connection from="A6A7" to="A7B7" fromLane="4" toLane="5"/>
    <connection from="A6A7" to="A7bottom7" fromLane="1" toLane="1"/>
    <connection from="A6A7" to="A7right0" fromLane="2" toLane="2"/>
    <connection from="A6A7" to="A7right0" fromLane="3" toLane="3"/>
    <connection from="B7A7" to="A7A6" fromLane="1" toLane="1"/>
    <connection from="B7A7" to="A7B7" fromLane="6" toLane="5"/>
    <connection from="B7A7" to="A7bottom7" fromLane="2" toLane="2"/>
    <connection from="B7A7" to="A7bottom7" fromLane="3" toLane="3"/>
    <connection from="B7A7" to="A7bottom7" fromLane="4" toLane="4"/>
    <connection from="B7A7" to="A7right0" fromLane="5" toLane="2"/>
    <connection from="B7A7" to="A7right0" fromLane="6" toLane="3"/>
    <connection from="bottom7A7" to="A7A6" fromLane="4" toLane="4"/>
    <connection from="bottom7A7" to="A7B7" fromLane="2" toLane="2"/>
    <connection from="bottom7A7" to="A7B7" fromLane="3" toLane="3"/>
    <connection from="bottom7A7" to="A7bottom7" fromLane="4" toLane="4"/>
    <connection from="bottom7A7" to="A7right0" fromLane="1" toLane="1"/>
    <connection from="right0A7" to="A7A6" fromLane="2" toLane="2"/>
    <connection from="right0A7" to="A7A6" fromLane="3" toLane="3"/>
    <connection from="right0A7" to="A7B7" fromLane="1" toLane="1"/>
    <connection from="right0A7" to="A7bottom7" fromLane="4" toLane="4"/>
    <connection from="right0A7" to="A7right0" fromLane="4" toLane="3"/>

    <!-- ==================== INTERSECTION B0 ==================== -->
    <connection from="A0B0" to="B0A0" fromLane="4" toLane="5"/>
    <connection from="A0B0" to="B0B1" fromLane="1" toLane="1"/>
    <connection from="A0B0" to="B0C0" fromLane="2" toLane="2"/>
    <connection from="A0B0" to="B0C0" fromLane="3" toLane="3"/>
    <connection from="A0B0" to="B0left1" fromLane="4" toLane="3"/>
    <connection from="B1B0" to="B0A0" fromLane="3" toLane="4"/>
    <connection from="B1B0" to="B0A0" fromLane="3" toLane="5"/>
    <connection from="B1B0" to="B0B1" fromLane="3" toLane="4"/>
    <connection from="B1B0" to="B0C0" fromLane="1" toLane="1"/>
    <connection from="B1B0" to="B0left1" fromLane="2" toLane="2"/>
    <connection from="C0B0" to="B0A0" fromLane="2" toLane="2"/>
    <connection from="C0B0" to="B0A0" fromLane="3" toLane="3"/>
    <connection from="C0B0" to="B0A0" fromLane="4" toLane="4"/>
    <connection from="C0B0" to="B0B1" fromLane="5" toLane="3"/>
    <connection from="C0B0" to="B0B1" fromLane="6" toLane="4"/>
    <connection from="C0B0" to="B0C0" fromLane="6" toLane="5"/>
    <connection from="C0B0" to="B0left1" fromLane="1" toLane="1"/>
    <connection from="left1B0" to="B0A0" fromLane="1" toLane="1"/>
    <connection from="left1B0" to="B0B1" fromLane="2" toLane="2"/>
    <connection from="left1B0" to="B0B1" fromLane="3" toLane="3"/>
    <connection from="left1B0" to="B0C0" fromLane="4" toLane="4"/>
    <connection from="left1B0" to="B0C0" fromLane="4" toLane="5"/>
    <connection from="left1B0" to="B0left1" fromLane="4" toLane="3"/>

    <!-- ==================== INTERSECTION B1 ==================== -->
    <connection from="A1B1" to="B1A1" fromLane="4" toLane="3"/>
    <connection from="A1B1" to="B1B0" fromLane="4" toLane="3"/>
    <connection from="A1B1" to="B1B2" fromLane="1" toLane="1"/>
    <connection from="A1B1" to="B1C1" fromLane="2" toLane="2"/>
    <connection from="A1B1" to="B1C1" fromLane="3" toLane="3"/>
    <connection from="B0B1" to="B1A1" fromLane="1" toLane="1"/>
    <connection from="B0B1" to="B1B0" fromLane="4" toLane="3"/>
    <connection from="B0B1" to="B1B2" fromLane="2" toLane="2"/>
    <connection from="B0B1" to="B1B2" fromLane="3" toLane="3"/>
    <connection from="B0B1" to="B1C1" fromLane="4" toLane="3"/>
    <connection from="B2B1" to="B1A1" fromLane="4" toLane="3"/>
    <connection from="B2B1" to="B1B0" fromLane="2" toLane="2"/>
    <connection from="B2B1" to="B1B0" fromLane="3" toLane="3"/>
    <connection from="B2B1" to="B1B2" fromLane="4" toLane="3"/>
    <connection from="B2B1" to="B1C1" fromLane="1" toLane="1"/>
    <connection from="C1B1" to="B1A1" fromLane="2" toLane="2"/>
    <connection from="C1B1" to="B1B0" fromLane="1" toLane="1"/>
    <connection from="C1B1" to="B1B2" fromLane="3" toLane="3"/>
    <connection from="C1B1" to="B1C1" fromLane="3" toLane="3"/>

    <!-- ==================== INTERSECTION B2 ==================== -->
    <connection from="A2B2" to="B2A2" fromLane="3" toLane="3"/>
    <connection from="A2B2" to="B2B1" fromLane="2" toLane="3"/>
    <connection from="A2B2" to="B2B1" fromLane="3" toLane="4"/>
    <connection from="A2B2" to="B2B3" fromLane="1" toLane="1"/>
    <connection from="B1B2" to="B2A2" fromLane="1" toLane="1"/>
    <connection from="B1B2" to="B2B3" fromLane="3" toLane="3"/>
    <connection from="B1B2" to="B2B3" fromLane="2" toLane="2"/>
    <connection from="B3B2" to="B2A2" fromLane="4" toLane="3"/>
    <connection from="B3B2" to="B2B1" fromLane="1" toLane="1"/>
    <connection from="B3B2" to="B2B1" fromLane="2" toLane="2"/>
    <connection from="B3B2" to="B2A2" fromLane="3" toLane="2"/>

    <!-- ==================== INTERSECTION B3 ==================== -->
    <connection from="A3B3" to="B3A3" fromLane="3" toLane="3"/>
    <connection from="A3B3" to="B3B2" fromLane="3" toLane="4"/>
    <connection from="A3B3" to="B3B4" fromLane="1" toLane="1"/>
    <connection from="A3B3" to="B3C3" fromLane="2" toLane="2"/>
    <connection from="B2B3" to="B3A3" fromLane="1" toLane="1"/>
    <connection from="B2B3" to="B3B2" fromLane="3" toLane="4"/>
    <connection from="B2B3" to="B3B4" fromLane="2" toLane="2"/>
    <connection from="B2B3" to="B3B4" fromLane="2" toLane="3"/>
    <connection from="B2B3" to="B3C3" fromLane="3" toLane="3"/>
    <connection from="B4B3" to="B3A3" fromLane="3" toLane="3"/>
    <connection from="B4B3" to="B3B2" fromLane="2" toLane="2"/>
    <connection from="B4B3" to="B3B2" fromLane="2" toLane="3"/>
    <connection from="B4B3" to="B3B4" fromLane="3" toLane="4"/>
    <connection from="B4B3" to="B3C3" fromLane="1" toLane="1"/>
    <connection from="C3B3" to="B3A3" fromLane="2" toLane="2"/>
    <connection from="C3B3" to="B3A3" fromLane="3" toLane="3"/>
    <connection from="C3B3" to="B3B2" fromLane="1" toLane="1"/>
    <connection from="C3B3" to="B3B4" fromLane="4" toLane="4"/>
    <connection from="C3B3" to="B3C3" fromLane="4" toLane="3"/>

    <!-- ==================== INTERSECTION B4 ==================== -->
    <connection from="A4B4" to="B4A4" fromLane="4" toLane="3"/>
    <connection from="A4B4" to="B4B3" fromLane="4" toLane="3"/>
    <connection from="A4B4" to="B4B5" fromLane="1" toLane="1"/>
    <connection from="A4B4" to="B4C4" fromLane="2" toLane="2"/>
    <connection from="A4B4" to="B4C4" fromLane="3" toLane="3"/>
    <connection from="B3B4" to="B4A4" fromLane="1" toLane="1"/>
    <connection from="B3B4" to="B4B3" fromLane="4" toLane="3"/>
    <connection from="B3B4" to="B4B5" fromLane="2" toLane="2"/>
    <connection from="B3B4" to="B4B5" fromLane="3" toLane="3"/>
    <connection from="B3B4" to="B4C4" fromLane="4" toLane="3"/>
    <connection from="B5B4" to="B4A4" fromLane="4" toLane="3"/>
    <connection from="B5B4" to="B4B3" fromLane="2" toLane="2"/>
    <connection from="B5B4" to="B4B3" fromLane="3" toLane="3"/>
    <connection from="B5B4" to="B4B5" fromLane="4" toLane="3"/>
    <connection from="B5B4" to="B4C4" fromLane="1" toLane="1"/>
    <connection from="C4B4" to="B4A4" fromLane="2" toLane="2"/>
    <connection from="C4B4" to="B4B3" fromLane="1" toLane="1"/>
    <connection from="C4B4" to="B4B5" fromLane="3" toLane="3"/>
    <connection from="C4B4" to="B4C4" fromLane="3" toLane="3"/>

    <!-- ==================== INTERSECTION B5 ==================== -->
    <connection from="A5B5" to="B5B4" fromLane="3" toLane="2"/>
    <connection from="A5B5" to="B5B4" fromLane="3" toLane="3"/>
    <connection from="A5B5" to="B5B4" fromLane="4" toLane="4"/>
    <connection from="A5B5" to="B5C5" fromLane="1" toLane="1"/>
    <connection from="A5B5" to="B5C5" fromLane="2" toLane="2"/>
    <connection from="B4B5" to="B5A5" fromLane="1" toLane="1"/>
    <connection from="B4B5" to="B5B4" fromLane="3" toLane="4"/>
    <connection from="B4B5" to="B5C5" fromLane="2" toLane="2"/>
    <connection from="B4B5" to="B5C5" fromLane="3" toLane="3"/>
    <connection from="C5B5" to="B5A5" fromLane="2" toLane="2"/>
    <connection from="C5B5" to="B5A5" fromLane="3" toLane="3"/>
    <connection from="C5B5" to="B5B4" fromLane="1" toLane="1"/>
    <connection from="C5B5" to="B5A5" fromLane="4" toLane="4"/>

    <!-- ==================== INTERSECTION B6 ==================== -->
    <connection from="A6B6" to="B6B7" fromLane="1" toLane="1"/>
    <connection from="A6B6" to="B6C6" fromLane="2" toLane="2"/>
    <connection from="A6B6" to="B6C6" fromLane="3" toLane="3"/>
    <connection from="A6B6" to="B6C6" fromLane="4" toLane="4"/>
    <connection from="B7B6" to="B6A6" fromLane="2" toLane="3"/>
    <connection from="B7B6" to="B6A6" fromLane="3" toLane="4"/>
    <connection from="B7B6" to="B6B7" fromLane="3" toLane="4"/>
    <connection from="B7B6" to="B6C6" fromLane="1" toLane="1"/>
    <connection from="C6B6" to="B6A6" fromLane="1" toLane="1"/>
    <connection from="C6B6" to="B6A6" fromLane="2" toLane="2"/>
    <connection from="C6B6" to="B6B7" fromLane="3" toLane="2"/>
    <connection from="C6B6" to="B6B7" fromLane="3" toLane="3"/>
    <connection from="C6B6" to="B6B7" fromLane="4" toLane="4"/>

    <!-- ==================== INTERSECTION B7 ==================== -->
    <connection from="A7B7" to="B7A7" fromLane="3" toLane="6"/>
    <connection from="A7B7" to="B7B6" fromLane="2" toLane="2"/>
    <connection from="A7B7" to="B7B6" fromLane="3" toLane="3"/>
    <connection from="A7B7" to="B7C7" fromLane="4" toLane="2"/>
    <connection from="A7B7" to="B7C7" fromLane="5" toLane="3"/>
    <connection from="A7B7" to="B7C7" fromLane="5" toLane="4"/>
    <connection from="A7B7" to="B7right1" fromLane="1" toLane="1"/>
    <connection from="B6B7" to="B7A7" fromLane="1" toLane="1"/>
    <connection from="B6B7" to="B7B6" fromLane="4" toLane="3"/>
    <connection from="B6B7" to="B7C7" fromLane="4" toLane="5"/>
    <connection from="B6B7" to="B7C7" fromLane="4" toLane="6"/>
    <connection from="B6B7" to="B7right1" fromLane="2" toLane="2"/>
    <connection from="B6B7" to="B7right1" fromLane="3" toLane="3"/>
    <connection from="C7B7" to="B7A7" fromLane="4" toLane="2"/>
    <connection from="C7B7" to="B7A7" fromLane="5" toLane="3"/>
    <connection from="C7B7" to="B7A7" fromLane="5" toLane="4"/>
    <connection from="C7B7" to="B7B6" fromLane="1" toLane="1"/>
    <connection from="C7B7" to="B7C7" fromLane="3" toLane="6"/>
    <connection from="C7B7" to="B7right1" fromLane="2" toLane="2"/>
    <connection from="C7B7" to="B7right1" fromLane="3" toLane="3"/>
    <connection from="right1B7" to="B7A7" fromLane="4" toLane="5"/>
    <connection from="right1B7" to="B7A7" fromLane="4" toLane="6"/>
    <connection from="right1B7" to="B7B6" fromLane="2" toLane="2"/>
    <connection from="right1B7" to="B7B6" fromLane="3" toLane="3"/>
    <connection from="right1B7" to="B7C7" fromLane="1" toLane="1"/>
    <connection from="right1B7" to="B7right1" fromLane="4" toLane="3"/>

    <!-- ==================== INTERSECTION C0 ==================== -->
    <connection from="B0C0" to="C0B0" fromLane="5" toLane="6"/>
    <connection from="B0C0" to="C0C1" fromLane="1" toLane="1"/>
    <connection from="B0C0" to="C0D0" fromLane="2" toLane="2"/>
    <connection from="B0C0" to="C0D0" fromLane="3" toLane="3"/>
    <connection from="B0C0" to="C0D0" fromLane="3" toLane="4"/>
    <connection from="B0C0" to="C0left2" fromLane="4" toLane="2"/>
    <connection from="B0C0" to="C0left2" fromLane="5" toLane="3"/>
    <connection from="C1C0" to="C0B0" fromLane="3" toLane="5"/>
    <connection from="C1C0" to="C0B0" fromLane="3" toLane="6"/>
    <connection from="C1C0" to="C0C1" fromLane="3" toLane="4"/>
    <connection from="C1C0" to="C0D0" fromLane="1" toLane="1"/>
    <connection from="C1C0" to="C0left2" fromLane="2" toLane="2"/>
    <connection from="D0C0" to="C0B0" fromLane="2" toLane="2"/>
    <connection from="D0C0" to="C0B0" fromLane="3" toLane="3"/>
    <connection from="D0C0" to="C0B0" fromLane="3" toLane="4"/>
    <connection from="D0C0" to="C0C1" fromLane="4" toLane="3"/>
    <connection from="D0C0" to="C0C1" fromLane="5" toLane="4"/>
    <connection from="D0C0" to="C0D0" fromLane="5" toLane="6"/>
    <connection from="D0C0" to="C0left2" fromLane="1" toLane="1"/>
    <connection from="left2C0" to="C0B0" fromLane="1" toLane="1"/>
    <connection from="left2C0" to="C0C1" fromLane="2" toLane="2"/>
    <connection from="left2C0" to="C0C1" fromLane="3" toLane="3"/>
    <connection from="left2C0" to="C0D0" fromLane="4" toLane="5"/>
    <connection from="left2C0" to="C0D0" fromLane="4" toLane="6"/>
    <connection from="left2C0" to="C0left2" fromLane="4" toLane="3"/>

    <!-- ==================== INTERSECTION C1 ==================== -->
    <connection from="B1C1" to="C1B1" fromLane="3" toLane="3"/>
    <connection from="B1C1" to="C1C0" fromLane="3" toLane="3"/>
    <connection from="B1C1" to="C1C2" fromLane="1" toLane="1"/>
    <connection from="B1C1" to="C1D1" fromLane="2" toLane="2"/>
    <connection from="B1C1" to="C1D1" fromLane="2" toLane="3"/>
    <connection from="C0C1" to="C1B1" fromLane="1" toLane="1"/>
    <connection from="C0C1" to="C1C0" fromLane="4" toLane="3"/>
    <connection from="C0C1" to="C1C2" fromLane="2" toLane="2"/>
    <connection from="C0C1" to="C1C2" fromLane="3" toLane="3"/>
    <connection from="C0C1" to="C1D1" fromLane="4" toLane="4"/>
    <connection from="C2C1" to="C1B1" fromLane="3" toLane="3"/>
    <connection from="C2C1" to="C1C0" fromLane="2" toLane="2"/>
    <connection from="C2C1" to="C1C2" fromLane="3" toLane="4"/>
    <connection from="C2C1" to="C1D1" fromLane="1" toLane="1"/>
    <connection from="D1C1" to="C1B1" fromLane="2" toLane="2"/>
    <connection from="D1C1" to="C1C0" fromLane="1" toLane="1"/>
    <connection from="D1C1" to="C1C2" fromLane="3" toLane="4"/>
    <connection from="D1C1" to="C1D1" fromLane="3" toLane="4"/>

    <!-- ==================== INTERSECTION C2 ==================== -->
    <connection from="C1C2" to="C2C3" fromLane="1" toLane="1"/>
    <connection from="C1C2" to="C2C3" fromLane="2" toLane="2"/>
    <connection from="C1C2" to="C2D2" fromLane="3" toLane="2"/>
    <connection from="C1C2" to="C2D2" fromLane="4" toLane="3"/>
    <connection from="C3C2" to="C2C1" fromLane="2" toLane="2"/>
    <connection from="C3C2" to="C2C1" fromLane="3" toLane="3"/>
    <connection from="C3C2" to="C2D2" fromLane="1" toLane="1"/>
    <connection from="D2C2" to="C2C1" fromLane="1" toLane="1"/>
    <connection from="D2C2" to="C2C3" fromLane="2" toLane="3"/>
    <connection from="D2C2" to="C2C3" fromLane="3" toLane="4"/>
    <connection from="D2C2" to="C2D2" fromLane="3" toLane="4"/>

    <!-- ==================== INTERSECTION C3 ==================== -->
    <connection from="B3C3" to="C3B3" fromLane="3" toLane="4"/>
    <connection from="B3C3" to="C3C2" fromLane="2" toLane="2"/>
    <connection from="B3C3" to="C3C2" fromLane="3" toLane="3"/>
    <connection from="B3C3" to="C3C4" fromLane="1" toLane="1"/>
    <connection from="C2C3" to="C3B3" fromLane="1" toLane="1"/>
    <connection from="C2C3" to="C3C2" fromLane="4" toLane="3"/>
    <connection from="C2C3" to="C3C4" fromLane="2" toLane="2"/>
    <connection from="C2C3" to="C3C4" fromLane="3" toLane="3"/>
    <connection from="C4C3" to="C3B3" fromLane="3" toLane="4"/>
    <connection from="C4C3" to="C3C2" fromLane="1" toLane="1"/>
    <connection from="C4C3" to="C3C2" fromLane="2" toLane="2"/>
    <connection from="C4C3" to="C3C4" fromLane="3" toLane="4"/>
    <connection from="D3C3" to="C3B3" fromLane="2" toLane="2"/>
    <connection from="D3C3" to="C3B3" fromLane="2" toLane="3"/>
    <connection from="D3C3" to="C3C2" fromLane="1" toLane="1"/>
    <connection from="D3C3" to="C3C4" fromLane="3" toLane="4"/>

    <!-- ==================== INTERSECTION C4 ==================== -->
    <connection from="B4C4" to="C4B4" fromLane="3" toLane="3"/>
    <connection from="B4C4" to="C4C3" fromLane="3" toLane="3"/>
    <connection from="B4C4" to="C4C5" fromLane="1" toLane="1"/>
    <connection from="B4C4" to="C4D4" fromLane="2" toLane="2"/>
    <connection from="C3C4" to="C4B4" fromLane="1" toLane="1"/>
    <connection from="C3C4" to="C4C3" fromLane="4" toLane="3"/>
    <connection from="C3C4" to="C4C5" fromLane="2" toLane="2"/>
    <connection from="C3C4" to="C4C5" fromLane="3" toLane="3"/>
    <connection from="C3C4" to="C4D4" fromLane="4" toLane="3"/>
    <connection from="C5C4" to="C4B4" fromLane="4" toLane="2"/>
    <connection from="C5C4" to="C4B4" fromLane="4" toLane="3"/>
    <connection from="C5C4" to="C4C3" fromLane="2" toLane="1"/>
    <connection from="C5C4" to="C4C3" fromLane="3" toLane="2"/>
    <connection from="C5C4" to="C4C5" fromLane="4" toLane="4"/>
    <connection from="C5C4" to="C4D4" fromLane="1" toLane="1"/>

    <!-- ==================== INTERSECTION C5 ==================== -->
    <connection from="B5C5" to="C5B5" fromLane="3" toLane="4"/>
    <connection from="B5C5" to="C5C4" fromLane="3" toLane="4"/>
    <connection from="B5C5" to="C5C6" fromLane="1" toLane="1"/>
    <connection from="B5C5" to="C5D5" fromLane="2" toLane="2"/>
    <connection from="C4C5" to="C5B5" fromLane="1" toLane="1"/>
    <connection from="C4C5" to="C5C4" fromLane="4" toLane="4"/>
    <connection from="C4C5" to="C5C6" fromLane="2" toLane="2"/>
    <connection from="C4C5" to="C5C6" fromLane="3" toLane="3"/>
    <connection from="C4C5" to="C5D5" fromLane="4" toLane="3"/>
    <connection from="C6C5" to="C5B5" fromLane="4" toLane="4"/>
    <connection from="C6C5" to="C5C4" fromLane="2" toLane="2"/>
    <connection from="C6C5" to="C5C4" fromLane="3" toLane="3"/>
    <connection from="C6C5" to="C5C6" fromLane="4" toLane="4"/>
    <connection from="C6C5" to="C5D5" fromLane="1" toLane="1"/>
    <connection from="D5C5" to="C5B5" fromLane="2" toLane="2"/>
    <connection from="D5C5" to="C5B5" fromLane="2" toLane="3"/>
    <connection from="D5C5" to="C5C4" fromLane="1" toLane="1"/>
    <connection from="D5C5" to="C5C6" fromLane="3" toLane="4"/>
    <connection from="D5C5" to="C5D5" fromLane="3" toLane="3"/>

    <!-- ==================== INTERSECTION C6 ==================== -->
    <connection from="B6C6" to="C6B6" fromLane="4" toLane="4"/>