<?xml version="1.0" encoding="UTF-8"?>
<additional xmlns:xsi="http://www.w3.org/2001/XMLSchema-instance" xsi:noNamespaceSchemaLocation="http://sumo.dlr.de/xsd/additional_file.xsd">

    <tlLogic id="A0" type="static" programID="0" offset="0">
        <phase duration="20" state="grrrrgGGGrrgrrrrgGGrrGrGr"/>
        <phase duration="3"  state="grrrrgyyyrrgrrrrgyyrrrrrr"/>
        <phase duration="2"  state="grrrrgrrrrrgrrrrgrrrrrrrr"/>
        <phase duration="20" state="grrrrgrrrGGgrrrrgrrGGrrrr"/>
        <phase duration="3"  state="grrrrgrrryygrrrrgrryyrrrr"/>
        <phase duration="2"  state="grrrrgrrrrrgrrrrgrrrrrrrr"/>
        <phase duration="20" state="gGGrrgrrrrrgGGrrgrrrrrGrG"/>
        <phase duration="3"  state="gyyrrgrrrrrgyyrrgrrrrrrrr"/>
        <phase duration="2"  state="grrrrgrrrrrgrrrrgrrrrrrrr"/>
        <phase duration="20" state="grrGGgrrrrrgrrGGgrrrrrrrr"/>
        <phase duration="3"  state="grryygrrrrrgrryygrrrrrrrr"/>
        <phase duration="2"  state="grrrrgrrrrrgrrrrgrrrrrrrr"/>
    </tlLogic>
    <tlLogic id="A1" type="static" programID="0" offset="0">
        <phase duration="20" state="grrrgGGrrgrrrrgGGrrGrGr"/>
        <phase duration="3"  state="grrrgyyrrgrrrrgyyrrrrrr"/>
        <phase duration="2"  state="grrrgrrrrgrrrrgrrrrrrrr"/>
        <phase duration="20" state="grrrgrrGGgrrrrgrrGGrrrr"/>
        <phase duration="3"  state="grrrgrryygrrrrgrryyrrrr"/>
        <phase duration="2"  state="grrrgrrrrgrrrrgrrrrrrrr"/>
        <phase duration="20" state="gGrrgrrrrgGGrrgrrrrrGrG"/>
        <phase duration="3"  state="gyrrgrrrrgyyrrgrrrrrrrr"/>
        <phase duration="2"  state="grrrgrrrrgrrrrgrrrrrrrr"/>
        <phase duration="20" state="grGGgrrrrgrrGGgrrrrrrrr"/>
        <phase duration="3"  state="gryygrrrrgrryygrrrrrrrr"/>
        <phase duration="2"  state="grrrgrrrrgrrrrgrrrrrrrr"/>
    </tlLogic>
    <tlLogic id="A2" type="static" programID="0" offset="0">
        <phase duration="20" state="grrrrgGGrrrgrrrrgGGrrGrGr"/>
        <phase duration="3"  state="grrrrgyyrrrgrrrrgyyrrrrrr"/>
        <phase duration="2"  state="grrrrgrrrrrgrrrrgrrrrrrrr"/>
        <phase duration="20" state="grrrrgrrGGGgrrrrgrrGGrrrr"/>
        <phase duration="3"  state="grrrrgrryyygrrrrgrryyrrrr"/>
        <phase duration="2"  state="grrrrgrrrrrgrrrrgrrrrrrrr"/>
        <phase duration="20" state="gGGrrgrrrrrgGGrrgrrrrrGrG"/>
        <phase duration="3"  state="gyyrrgrrrrrgyyrrgrrrrrrrr"/>
        <phase duration="2"  state="grrrrgrrrrrgrrrrgrrrrrrrr"/>
        <phase duration="20" state="grrGGgrrrrrgrrGGgrrrrrrrr"/>
        <phase duration="3"  state="grryygrrrrrgrryygrrrrrrrr"/>
        <phase duration="2"  state="grrrrgrrrrrgrrrrgrrrrrrrr"/>
    </tlLogic>
    <tlLogic id="A3" type="static" programID="0" offset="0">
        <phase duration="20" state="gGGrrgrrrrgGGrrgrrrrrGrG"/>
        <phase duration="3"  state="gyyrrgrrrrgyyrrgrrrrrrrr"/>
        <phase duration="2"  state="grrrrgrrrrgrrrrgrrrrrrrr"/>
        <phase duration="20" state="grrGGgrrrrgrrGGgrrrrrrrr"/>
        <phase duration="3"  state="grryygrrrrgrryygrrrrrrrr"/>
        <phase duration="2"  state="grrrrgrrrrgrrrrgrrrrrrrr"/>
        <phase duration="20" state="grrrrgGGrrgrrrrgGGrrGrGr"/>
        <phase duration="3"  state="grrrrgyyrrgrrrrgyyrrrrrr"/>
        <phase duration="2"  state="grrrrgrrrrgrrrrgrrrrrrrr"/>
        <phase duration="20" state="grrrrgrrGGgrrrrgrrGGrrrr"/>
        <phase duration="3"  state="grrrrgrryygrrrrgrryyrrrr"/>
        <phase duration="2"  state="grrrrgrrrrgrrrrgrrrrrrrr"/>
    </tlLogic>
    <tlLogic id="B0" type="static" programID="0" offset="0">
        <phase duration="20" state="grrrgGGrrrgrrrrgGGrrGrGr"/>
        <phase duration="3"  state="grrrgyyrrrgrrrrgyyrrrrrr"/>
        <phase duration="2"  state="grrrgrrrrrgrrrrgrrrrrrrr"/>
        <phase duration="20" state="grrrgrrGGGgrrrrgrrGGrrrr"/>
        <phase duration="3"  state="grrrgrryyygrrrrgrryyrrrr"/>
        <phase duration="2"  state="grrrgrrrrrgrrrrgrrrrrrrr"/>
        <phase duration="20" state="gGrrgrrrrrgGGrrgrrrrrGrG"/>
        <phase duration="3"  state="gyrrgrrrrrgyyrrgrrrrrrrr"/>
        <phase duration="2"  state="grrrgrrrrrgrrrrgrrrrrrrr"/>
        <phase duration="20" state="grGGgrrrrrgrrGGgrrrrrrrr"/>
        <phase duration="3"  state="gryygrrrrrgrryygrrrrrrrr"/>
        <phase duration="2"  state="grrrgrrrrrgrrrrgrrrrrrrr"/>
    </tlLogic>
    <tlLogic id="B1" type="static" programID="0" offset="0">
        <phase duration="20" state="gGGrrrgrrrgGGrrgrrrrrGrG"/>
        <phase duration="3"  state="gyyrrrgrrrgyyrrgrrrrrrrr"/>
        <phase duration="2"  state="grrrrrgrrrgrrrrgrrrrrrrr"/>
        <phase duration="20" state="grrGGGgrrrgrrGGgrrrrrrrr"/>
        <phase duration="3"  state="grryyygrrrgrryygrrrrrrrr"/>
        <phase duration="2"  state="grrrrrgrrrgrrrrgrrrrrrrr"/>
        <phase duration="20" state="grrrrrgGrrgrrrrgGGrrGrGr"/>
        <phase duration="3"  state="grrrrrgyrrgrrrrgyyrrrrrr"/>
        <phase duration="2"  state="grrrrrgrrrgrrrrgrrrrrrrr"/>
        <phase duration="20" state="grrrrrgrGGgrrrrgrrGGrrrr"/>
        <phase duration="3"  state="grrrrrgryygrrrrgrryyrrrr"/>
        <phase duration="2"  state="grrrrrgrrrgrrrrgrrrrrrrr"/>
    </tlLogic>
    <tlLogic id="B2" type="static" programID="0" offset="0">
        <phase duration="20" state="grrrrgGGrrgrrrrgGGrrGrGr"/>
        <phase duration="3"  state="grrrrgyyrrgrrrrgyyrrrrrr"/>
        <phase duration="2"  state="grrrrgrrrrgrrrrgrrrrrrrr"/>
        <phase duration="20" state="grrrrgrrGGgrrrrgrrGGrrrr"/>
        <phase duration="3"  state="grrrrgrryygrrrrgrryyrrrr"/>
        <phase duration="2"  state="grrrrgrrrrgrrrrgrrrrrrrr"/>
        <phase duration="20" state="gGGrrgrrrrgGGrrgrrrrrGrG"/>
        <phase duration="3"  state="gyyrrgrrrrgyyrrgrrrrrrrr"/>
        <phase duration="2"  state="grrrrgrrrrgrrrrgrrrrrrrr"/>
        <phase duration="20" state="grrGGgrrrrgrrGGgrrrrrrrr"/>
        <phase duration="3"  state="grryygrrrrgrryygrrrrrrrr"/>
        <phase duration="2"  state="grrrrgrrrrgrrrrgrrrrrrrr"/>
    </tlLogic>
    <tlLogic id="B3" type="static" programID="0" offset="0">
        <phase duration="20" state="gGGrrgrrrgGGrrgrrrrGrG"/>
        <phase duration="3"  state="gyyrrgrrrgyyrrgrrrrrrr"/>
        <phase duration="2"  state="grrrrgrrrgrrrrgrrrrrrr"/>
        <phase duration="20" state="grrGGgrrrgrrGGgrrrrrrr"/>
        <phase duration="3"  state="grryygrrrgrryygrrrrrrr"/>
        <phase duration="2"  state="grrrrgrrrgrrrrgrrrrrrr"/>
        <phase duration="20" state="grrrrgGrrgrrrrgGrrGrGr"/>
        <phase duration="3"  state="grrrrgyrrgrrrrgyrrrrrr"/>
        <phase duration="2"  state="grrrrgrrrgrrrrgrrrrrrr"/>
        <phase duration="20" state="grrrrgrGGgrrrrgrGGrrrr"/>
        <phase duration="3"  state="grrrrgryygrrrrgryyrrrr"/>
        <phase duration="2"  state="grrrrgrrrgrrrrgrrrrrrr"/>
    </tlLogic>
    <tlLogic id="C0" type="static" programID="0" offset="0">
        <phase duration="20" state="grrrrgGrrgrrrrgGGrrGrGr"/>
        <phase duration="3"  state="grrrrgyrrgrrrrgyyrrrrrr"/>
        <phase duration="2"  state="grrrrgrrrgrrrrgrrrrrrrr"/>
        <phase duration="20" state="grrrrgrGGgrrrrgrrGGrrrr"/>
        <phase duration="3"  state="grrrrgryygrrrrgrryyrrrr"/>
        <phase duration="2"  state="grrrrgrrrgrrrrgrrrrrrrr"/>
        <phase duration="20" state="gGGrrgrrrgGGrrgrrrrrGrG"/>
        <phase duration="3"  state="gyyrrgrrrgyyrrgrrrrrrrr"/>
        <phase duration="2"  state="grrrrgrrrgrrrrgrrrrrrrr"/>
        <phase duration="20" state="grrGGgrrrgrrGGgrrrrrrrr"/>
        <phase duration="3"  state="grryygrrrgrryygrrrrrrrr"/>
        <phase duration="2"  state="grrrrgrrrgrrrrgrrrrrrrr"/>
    </tlLogic>
    <tlLogic id="C1" type="static" programID="0" offset="0">
        <phase duration="20" state="grrrrgGGrrgrrrrgGGGrrGrGr"/>
        <phase duration="3"  state="grrrrgyyrrgrrrrgyyyrrrrrr"/>
        <phase duration="2"  state="grrrrgrrrrgrrrrgrrrrrrrrr"/>
        <phase duration="20" state="grrrrgrrGGgrrrrgrrrGGrrrr"/>
        <phase duration="3"  state="grrrrgrryygrrrrgrrryyrrrr"/>
        <phase duration="2"  state="grrrrgrrrrgrrrrgrrrrrrrrr"/>
        <phase duration="20" state="gGGrrgrrrrgGGrrgrrrrrrGrG"/>
        <phase duration="3"  state="gyyrrgrrrrgyyrrgrrrrrrrrr"/>
        <phase duration="2"  state="grrrrgrrrrgrrrrgrrrrrrrrr"/>
        <phase duration="20" state="grrGGgrrrrgrrGGgrrrrrrrrr"/>
        <phase duration="3"  state="grryygrrrrgrryygrrrrrrrrr"/>
        <phase duration="2"  state="grrrrgrrrrgrrrrgrrrrrrrrr"/>
    </tlLogic>
    <tlLogic id="C2" type="static" programID="0" offset="0">
        <phase duration="20" state="grrrrgGGrrgrrrrgGGrrGrGr"/>
        <phase duration="3"  state="grrrrgyyrrgrrrrgyyrrrrrr"/>
        <phase duration="2"  state="grrrrgrrrrgrrrrgrrrrrrrr"/>
        <phase duration="20" state="grrrrgrrGGgrrrrgrrGGrrrr"/>
        <phase duration="3"  state="grrrrgrryygrrrrgrryyrrrr"/>
        <phase duration="2"  state="grrrrgrrrrgrrrrgrrrrrrrr"/>
        <phase duration="20" state="gGGrrgrrrrgGGrrgrrrrrGrG"/>
        <phase duration="3"  state="gyyrrgrrrrgyyrrgrrrrrrrr"/>
        <phase duration="2"  state="grrrrgrrrrgrrrrgrrrrrrrr"/>
        <phase duration="20" state="grrGGgrrrrgrrGGgrrrrrrrr"/>
        <phase duration="3"  state="grryygrrrrgrryygrrrrrrrr"/>
        <phase duration="2"  state="grrrrgrrrrgrrrrgrrrrrrrr"/>
    </tlLogic>
    <tlLogic id="C3" type="static" programID="0" offset="0">
        <phase duration="20" state="grrrgGGrrrgrrrgGGrrGrGr"/>
        <phase duration="3"  state="grrrgyyrrrgrrrgyyrrrrrr"/>
        <phase duration="2"  state="grrrgrrrrrgrrrgrrrrrrrr"/>
        <phase duration="20" state="grrrgrrGGGgrrrgrrGGrrrr"/>
        <phase duration="3"  state="grrrgrryyygrrrgrryyrrrr"/>
        <phase duration="2"  state="grrrgrrrrrgrrrgrrrrrrrr"/>
        <phase duration="20" state="gGrrgrrrrrgGrrgrrrrrGrG"/>
        <phase duration="3"  state="gyrrgrrrrrgyrrgrrrrrrrr"/>
        <phase duration="2"  state="grrrgrrrrrgrrrgrrrrrrrr"/>
        <phase duration="20" state="grGGgrrrrrgrGGgrrrrrrrr"/>
        <phase duration="3"  state="gryygrrrrrgryygrrrrrrrr"/>
        <phase duration="2"  state="grrrgrrrrrgrrrgrrrrrrrr"/>
    </tlLogic>
    <tlLogic id="D0" type="static" programID="0" offset="0">
        <phase duration="20" state="grrrrrgGGrrgrrrrgGGrrGrGr"/>
        <phase duration="3"  state="grrrrrgyyrrgrrrrgyyrrrrrr"/>
        <phase duration="2"  state="grrrrrgrrrrgrrrrgrrrrrrrr"/>
        <phase duration="20" state="grrrrrgrrGGgrrrrgrrGGrrrr"/>
        <phase duration="3"  state="grrrrrgrryygrrrrgrryyrrrr"/>
        <phase duration="2"  state="grrrrrgrrrrgrrrrgrrrrrrrr"/>
        <phase duration="20" state="gGGGrrgrrrrgGGrrgrrrrrGrG"/>
        <phase duration="3"  state="gyyyrrgrrrrgyyrrgrrrrrrrr"/>
        <phase duration="2"  state="grrrrrgrrrrgrrrrgrrrrrrrr"/>
        <phase duration="20" state="grrrGGgrrrrgrrGGgrrrrrrrr"/>
        <phase duration="3"  state="grrryygrrrrgrryygrrrrrrrr"/>
        <phase duration="2"  state="grrrrrgrrrrgrrrrgrrrrrrrr"/>
    </tlLogic>
    <tlLogic id="D1" type="static" programID="0" offset="0">
        <phase duration="20" state="grrrrgGGrrgrrrrgGGrrGrGr"/>
        <phase duration="3"  state="grrrrgyyrrgrrrrgyyrrrrrr"/>
        <phase duration="2"  state="grrrrgrrrrgrrrrgrrrrrrrr"/>
        <phase duration="20" state="grrrrgrrGGgrrrrgrrGGrrrr"/>
        <phase duration="3"  state="grrrrgrryygrrrrgrryyrrrr"/>
        <phase duration="2"  state="grrrrgrrrrgrrrrgrrrrrrrr"/>
        <phase duration="20" state="gGGrrgrrrrgGGrrgrrrrrGrG"/>
        <phase duration="3"  state="gyyrrgrrrrgyyrrgrrrrrrrr"/>
        <phase duration="2"  state="grrrrgrrrrgrrrrgrrrrrrrr"/>
        <phase duration="20" state="grrGGgrrrrgrrGGgrrrrrrrr"/>
        <phase duration="3"  state="grryygrrrrgrryygrrrrrrrr"/>
        <phase duration="2"  state="grrrrgrrrrgrrrrgrrrrrrrr"/>
    </tlLogic>
    <tlLogic id="D2" type="static" programID="0" offset="0">
        <phase duration="20" state="grrrrgGGGrrgrrrrgGrrGrGr"/>
        <phase duration="3"  state="grrrrgyyyrrgrrrrgyrrrrrr"/>
        <phase duration="2"  state="grrrrgrrrrrgrrrrgrrrrrrr"/>
        <phase duration="20" state="grrrrgrrrGGgrrrrgrGGrrrr"/>
        <phase duration="3"  state="grrrrgrrryygrrrrgryyrrrr"/>
        <phase duration="2"  state="grrrrgrrrrrgrrrrgrrrrrrr"/>
        <phase duration="20" state="gGGrrgrrrrrgGGrrgrrrrGrG"/>
        <phase duration="3"  state="gyyrrgrrrrrgyyrrgrrrrrrr"/>
        <phase duration="2"  state="grrrrgrrrrrgrrrrgrrrrrrr"/>
        <phase duration="20" state="grrGGgrrrrrgrrGGgrrrrrrr"/>
        <phase duration="3"  state="grryygrrrrrgrryygrrrrrrr"/>
        <phase duration="2"  state="grrrrgrrrrrgrrrrgrrrrrrr"/>
    </tlLogic>
    <tlLogic id="D3" type="static" programID="0" offset="0">
        <phase duration="20" state="gGrrgrrrrgGGrrgrrrrrGrG"/>
        <phase duration="3"  state="gyrrgrrrrgyyrrgrrrrrrrr"/>
        <phase duration="2"  state="grrrgrrrrgrrrrgrrrrrrrr"/>
        <phase duration="20" state="grGGgrrrrgrrGGgrrrrrrrr"/>
        <phase duration="3"  state="gryygrrrrgrryygrrrrrrrr"/>
        <phase duration="2"  state="grrrgrrrrgrrrrgrrrrrrrr"/>
        <phase duration="20" state="grrrgGGrrgrrrrgGGrrGrGr"/>
        <phase duration="3"  state="grrrgyyrrgrrrrgyyrrrrrr"/>
        <phase duration="2"  state="grrrgrrrrgrrrrgrrrrrrrr"/>
        <phase duration="20" state="grrrgrrGGgrrrrgrrGGrrrr"/>
        <phase duration="3"  state="grrrgrryygrrrrgrryyrrrr"/>
        <phase duration="2"  state="grrrgrrrrgrrrrgrrrrrrrr"/>
    </tlLogic>

</additional>