<?xml version='1.0' encoding='utf-8'?>
<nodes xmlns:xsi="http://www.w3.org/2001/XMLSchema-instance" xsi:noNamespaceSchemaLocation="http://sumo.dlr.de/xsd/nodes_file.xsd">
    <node id="A0" x="511.15" y="462.0" type="traffic_light" />
    <node id="A1" x="749.0" y="477.86" type="traffic_light" />
    <node id="A2" x="1052.92" y="514.14" type="traffic_light" />
    <node id="A3" x="1332.37" y="466.96" type="traffic_light" />
    <node id="B0" x="493.75" y="729.38" type="traffic_light" />
    <node id="B1" x="744.49" y="767.43" type="traffic_light" />
    <node id="B2" x="996.12" y="742.91" type="traffic_light" />
    <node id="B3" x="1312.99" y="770.6" type="traffic_light" />
    <node id="C0" x="477.64" y="1041.14" type="traffic_light" />
    <node id="C1" x="791.75" y="994.52" type="traffic_light" />
    <node id="C2" x="1058.47" y="1049.85" type="traffic_light" />
    <node id="C3" x="1288.22" y="1006.44" type="traffic_light" />
    <node id="D0" x="536.58" y="1287.93" type="traffic_light" />
    <node id="D1" x="774.42" y="1268.74" type="traffic_light" />
    <node id="D2" x="1061.8" y="1309.3" type="traffic_light" />
    <node id="D3" x="1325.57" y="1319.38" type="traffic_light" />
    <node id="top0" x="500.72" y="1577.46" type="priority" />
    <node id="top1" x="764.57" y="1569.04" type="priority" />
    <node id="top2" x="1040.59" y="1570.37" type="priority" />
    <node id="top3" x="1308.23" y="1569.55" type="priority" />
    <node id="bottom0" x="504.09" y="223.92" type="priority" />
    <node id="bottom1" x="761.56" y="228.79" type="priority" />
    <node id="bottom2" x="1025.6" y="227.66" type="priority" />
    <node id="bottom3" x="1293.02" y="228.56" type="priority" />
    <node id="left0" x="235.71" y="497.3" type="priority" />
    <node id="left1" x="230.4" y="761.19" type="priority" />
    <node id="left2" x="228.34" y="1042.73" type="priority" />
    <node id="left3" x="235.96" y="1303.18" type="priority" />
    <node id="right0" x="1561.42" y="504.58" type="priority" />
    <node id="right1" x="1561.27" y="764.59" type="priority" />
    <node id="right2" x="1577.79" y="1036.8" type="priority" />
    <node id="right3" x="1569.14" y="1304.69" type="priority" />
</nodes>