<?xml version='1.0' encoding='utf-8'?>
<routes xmlns:xsi="http://www.w3.org/2001/XMLSchema-instance" xsi:noNamespaceSchemaLocation="http://sumo.dlr.de/xsd/routes_file.xsd"><vType id="ambulance" vClass="emergency" length="6.0" width="2.3" height="2.5" accel="3.0" decel="5.0" sigma="0.2" speedFactor="1.2" speedDev="0.05" color="1.0,1.0,1.0" /><flow id="ambulance_bottom0A0" type="ambulance" from="bottom0A0" begin="0" end="3600" probability="0.002967" /><flow id="ambulance_bottom1A1" type="ambulance" from="bottom1A1" begin="0" end="3600" probability="0.002962" /><flow id="ambulance_bottom2A2" type="ambulance" from="bottom2A2" begin="0" end="3600" probability="0.002853" /><flow id="ambulance_bottom3A3" type="ambulance" from="bottom3A3" begin="0" end="3600" probability="0.002834" /><flow id="ambulance_bottom4A4" type="ambulance" from="bottom4A4" begin="0" end="3600" probability="0.003076" /><flow id="ambulance_bottom5A5" type="ambulance" from="bottom5A5" begin="0" end="3600" probability="0.002786" /><flow id="ambulance_bottom6A6" type="ambulance" from="bottom6A6" begin="0" end="3600" probability="0.00287" /><flow id="ambulance_bottom7A7" type="ambulance" from="bottom7A7" begin="0" end="3600" probability="0.00284" /><flow id="ambulance_left0A0" type="ambulance" from="left0A0" begin="0" end="3600" probability="0.003184" /><flow id="ambulance_left1B0" type="ambulance" from="left1B0" begin="0" end="3600" probability="0.002896" /><flow id="ambulance_left2C0" type="ambulance" from="left2C0" begin="0" end="3600" probability="0.002839" /><flow id="ambulance_left3D0" type="ambulance" from="left3D0" begin="0" end="3600" probability="0.003174" /><flow id="ambulance_left4E0" type="ambulance" from="left4E0" begin="0" end="3600" probability="0.002897" /><flow id="ambulance_left5F0" type="ambulance" from="left5F0" begin="0" end="3600" probability="0.003146" /><flow id="ambulance_left6G0" type="ambulance" from="left6G0" begin="0" end="3600" probability="0.00291" /><flow id="ambulance_right0A7" type="ambulance" from="right0A7" begin="0" end="3600" probability="0.0031" /><flow id="ambulance_right1B7" type="ambulance" from="right1B7" begin="0" end="3600" probability="0.003152" /><flow id="ambulance_right2C7" type="ambulance" from="right2C7" begin="0" end="3600" probability="0.003125" /><flow id="ambulance_right3D7" type="ambulance" from="right3D7" begin="0" end="3600" probability="0.003121" /><flow id="ambulance_right4E7" type="ambulance" from="right4E7" begin="0" end="3600" probability="0.003155" /><flow id="ambulance_right5F7" type="ambulance" from="right5F7" begin="0" end="3600" probability="0.00325" /><flow id="ambulance_right6G7" type="ambulance" from="right6G7" begin="0" end="3600" probability="0.002975" /><flow id="ambulance_top0G0" type="ambulance" from="top0G0" begin="0" end="3600" probability="0.003209" /><flow id="ambulance_top1G1" type="ambulance" from="top1G1" begin="0" end="3600" probability="0.002874" /><flow id="ambulance_top2G2" type="ambulance" from="top2G2" begin="0" end="3600" probability="0.003183" /><flow id="ambulance_top3G3" type="ambulance" from="top3G3" begin="0" end="3600" probability="0.002775" /><flow id="ambulance_top4G4" type="ambulance" from="top4G4" begin="0" end="3600" probability="0.003114" /><flow id="ambulance_top5G5" type="ambulance" from="top5G5" begin="0" end="3600" probability="0.003031" /><flow id="ambulance_top6G6" type="ambulance" from="top6G6" begin="0" end="3600" probability="0.002766" /><flow id="ambulance_top7G7" type="ambulance" from="top7G7" begin="0" end="3600" probability="0.003044" /></routes>