<?xml version='1.0' encoding='utf-8'?>
<routes xmlns:xsi="http://www.w3.org/2001/XMLSchema-instance" xsi:noNamespaceSchemaLocation="http://sumo.dlr.de/xsd/routes_file.xsd"><vType id="sedan" vClass="passenger" length="4.5" width="1.8" height="1.5" accel="2.6" decel="4.5" sigma="0.5" speedFactor="1.0" speedDev="0.1" color="0.8,0.8,0.8" /><flow id="sedan_bottom0A0" type="sedan" from="bottom0A0" begin="0" end="3600" probability="0.089858" /><flow id="sedan_bottom1A1" type="sedan" from="bottom1A1" begin="0" end="3600" probability="0.089822" /><flow id="sedan_bottom2A2" type="sedan" from="bottom2A2" begin="0" end="3600" probability="0.094464" /><flow id="sedan_bottom3A3" type="sedan" from="bottom3A3" begin="0" end="3600" probability="0.100263" /><flow id="sedan_bottom4A4" type="sedan" from="bottom4A4" begin="0" end="3600" probability="0.095543" /><flow id="sedan_bottom5A5" type="sedan" from="bottom5A5" begin="0" end="3600" probability="0.096704" /><flow id="sedan_bottom6A6" type="sedan" from="bottom6A6" begin="0" end="3600" probability="0.093051" /><flow id="sedan_bottom7A7" type="sedan" from="bottom7A7" begin="0" end="3600" probability="0.094166" /><flow id="sedan_left0A0" type="sedan" from="left0A0" begin="0" end="3600" probability="0.095044" /><flow id="sedan_left1B0" type="sedan" from="left1B0" begin="0" end="3600" probability="0.089126" /><flow id="sedan_left2C0" type="sedan" from="left2C0" begin="0" end="3600" probability="0.095575" /><flow id="sedan_left3D0" type="sedan" from="left3D0" begin="0" end="3600" probability="0.088743" /><flow id="sedan_left4E0" type="sedan" from="left4E0" begin="0" end="3600" probability="0.090258" /><flow id="sedan_left5F0" type="sedan" from="left5F0" begin="0" end="3600" probability="0.097793" /><flow id="sedan_left6G0" type="sedan" from="left6G0" begin="0" end="3600" probability="0.096814" /><flow id="sedan_right0A7" type="sedan" from="right0A7" begin="0" end="3600" probability="0.098943" /><flow id="sedan_right1B7" type="sedan" from="right1B7" begin="0" end="3600" probability="0.093932" /><flow id="sedan_right2C7" type="sedan" from="right2C7" begin="0" end="3600" probability="0.086895" /><flow id="sedan_right3D7" type="sedan" from="right3D7" begin="0" end="3600" probability="0.087447" /><flow id="sedan_right4E7" type="sedan" from="right4E7" begin="0" end="3600" probability="0.096591" /><flow id="sedan_right5F7" type="sedan" from="right5F7" begin="0" end="3600" probability="0.091286" /><flow id="sedan_right6G7" type="sedan" from="right6G7" begin="0" end="3600" probability="0.08969" /><flow id="sedan_top0G0" type="sedan" from="top0G0" begin="0" end="3600" probability="0.099241" /><flow id="sedan_top1G1" type="sedan" from="top1G1" begin="0" end="3600" probability="0.088888" /><flow id="sedan_top2G2" type="sedan" from="top2G2" begin="0" end="3600" probability="0.088583" /><flow id="sedan_top3G3" type="sedan" from="top3G3" begin="0" end="3600" probability="0.092331" /><flow id="sedan_top4G4" type="sedan" from="top4G4" begin="0" end="3600" probability="0.089673" /><flow id="sedan_top5G5" type="sedan" from="top5G5" begin="0" end="3600" probability="0.097597" /><flow id="sedan_top6G6" type="sedan" from="top6G6" begin="0" end="3600" probability="0.099574" /><flow id="sedan_top7G7" type="sedan" from="top7G7" begin="0" end="3600" probability="0.091969" /></routes>