<?xml version='1.0' encoding='utf-8'?>
<routes xmlns:xsi="http://www.w3.org/2001/XMLSchema-instance" xsi:noNamespaceSchemaLocation="http://sumo.dlr.de/xsd/routes_file.xsd"><vType id="suv" vClass="passenger" length="5.0" width="2.0" height="1.8" accel="2.2" decel="4.0" sigma="0.5" speedFactor="0.95" speedDev="0.1" color="0.3,0.3,0.6" /><flow id="suv_bottom0A0" type="suv" from="bottom0A0" begin="0" end="3600" probability="0.04394" /><flow id="suv_bottom1A1" type="suv" from="bottom1A1" begin="0" end="3600" probability="0.044354" /><flow id="suv_bottom2A2" type="suv" from="bottom2A2" begin="0" end="3600" probability="0.040889" /><flow id="suv_bottom3A3" type="suv" from="bottom3A3" begin="0" end="3600" probability="0.04322" /><flow id="suv_bottom4A4" type="suv" from="bottom4A4" begin="0" end="3600" probability="0.039484" /><flow id="suv_bottom5A5" type="suv" from="bottom5A5" begin="0" end="3600" probability="0.045382" /><flow id="suv_bottom6A6" type="suv" from="bottom6A6" begin="0" end="3600" probability="0.044708" /><flow id="suv_bottom7A7" type="suv" from="bottom7A7" begin="0" end="3600" probability="0.042439" /><flow id="suv_left0A0" type="suv" from="left0A0" begin="0" end="3600" probability="0.044904" /><flow id="suv_left1B0" type="suv" from="left1B0" begin="0" end="3600" probability="0.04397" /><flow id="suv_left2C0" type="suv" from="left2C0" begin="0" end="3600" probability="0.042751" /><flow id="suv_left3D0" type="suv" from="left3D0" begin="0" end="3600" probability="0.04353" /><flow id="suv_left4E0" type="suv" from="left4E0" begin="0" end="3600" probability="0.039906" /><flow id="suv_left5F0" type="suv" from="left5F0" begin="0" end="3600" probability="0.039969" /><flow id="suv_left6G0" type="suv" from="left6G0" begin="0" end="3600" probability="0.039269" /><flow id="suv_right0A7" type="suv" from="right0A7" begin="0" end="3600" probability="0.042472" /><flow id="suv_right1B7" type="suv" from="right1B7" begin="0" end="3600" probability="0.043187" /><flow id="suv_right2C7" type="suv" from="right2C7" begin="0" end="3600" probability="0.042997" /><flow id="suv_right3D7" type="suv" from="right3D7" begin="0" end="3600" probability="0.043273" /><flow id="suv_right4E7" type="suv" from="right4E7" begin="0" end="3600" probability="0.041266" /><flow id="suv_right5F7" type="suv" from="right5F7" begin="0" end="3600" probability="0.042452" /><flow id="suv_right6G7" type="suv" from="right6G7" begin="0" end="3600" probability="0.041938" /><flow id="suv_top0G0" type="suv" from="top0G0" begin="0" end="3600" probability="0.045223" /><flow id="suv_top1G1" type="suv" from="top1G1" begin="0" end="3600" probability="0.043445" /><flow id="suv_top2G2" type="suv" from="top2G2" begin="0" end="3600" probability="0.039067" /><flow id="suv_top3G3" type="suv" from="top3G3" begin="0" end="3600" probability="0.042047" /><flow id="suv_top4G4" type="suv" from="top4G4" begin="0" end="3600" probability="0.044893" /><flow id="suv_top5G5" type="suv" from="top5G5" begin="0" end="3600" probability="0.042073" /><flow id="suv_top6G6" type="suv" from="top6G6" begin="0" end="3600" probability="0.04525" /><flow id="suv_top7G7" type="suv" from="top7G7" begin="0" end="3600" probability="0.039419" /></routes>