<?xml version='1.0' encoding='utf-8'?>
<routes xmlns:xsi="http://www.w3.org/2001/XMLSchema-instance" xsi:noNamespaceSchemaLocation="http://sumo.dlr.de/xsd/routes_file.xsd"><vType id="truck" vClass="truck" length="8.0" width="2.5" height="3.0" accel="1.3" decel="3.5" sigma="0.3" speedFactor="0.85" speedDev="0.08" color="0.6,0.4,0.2" /><flow id="truck_bottom0A0" type="truck" from="bottom0A0" begin="0" end="3600" probability="0.012326" /><flow id="truck_bottom1A1" type="truck" from="bottom1A1" begin="0" end="3600" probability="0.012939" /><flow id="truck_bottom2A2" type="truck" from="bottom2A2" begin="0" end="3600" probability="0.012775" /><flow id="truck_bottom3A3" type="truck" from="bottom3A3" begin="0" end="3600" probability="0.012331" /><flow id="truck_bottom4A4" type="truck" from="bottom4A4" begin="0" end="3600" probability="0.012952" /><flow id="truck_bottom5A5" type="truck" from="bottom5A5" begin="0" end="3600" probability="0.013119" /><flow id="truck_bottom6A6" type="truck" from="bottom6A6" begin="0" end="3600" probability="0.012483" /><flow id="truck_bottom7A7" type="truck" from="bottom7A7" begin="0" end="3600" probability="0.011717" /><flow id="truck_left0A0" type="truck" from="left0A0" begin="0" end="3600" probability="0.012529" /><flow id="truck_left1B0" type="truck" from="left1B0" begin="0" end="3600" probability="0.011456" /><flow id="truck_left2C0" type="truck" from="left2C0" begin="0" end="3600" probability="0.011493" /><flow id="truck_left3D0" type="truck" from="left3D0" begin="0" end="3600" probability="0.011133" /><flow id="truck_left4E0" type="truck" from="left4E0" begin="0" end="3600" probability="0.012217" /><flow id="truck_left5F0" type="truck" from="left5F0" begin="0" end="3600" probability="0.011089" /><flow id="truck_left6G0" type="truck" from="left6G0" begin="0" end="3600" probability="0.012934" /><flow id="truck_right0A7" type="truck" from="right0A7" begin="0" end="3600" probability="0.011528" /><flow id="truck_right1B7" type="truck" from="right1B7" begin="0" end="3600" probability="0.011992" /><flow id="truck_right2C7" type="truck" from="right2C7" begin="0" end="3600" probability="0.011144" /><flow id="truck_right3D7" type="truck" from="right3D7" begin="0" end="3600" probability="0.011185" /><flow id="truck_right4E7" type="truck" from="right4E7" begin="0" end="3600" probability="0.011367" /><flow id="truck_right5F7" type="truck" from="right5F7" begin="0" end="3600" probability="0.012824" /><flow id="truck_right6G7" type="truck" from="right6G7" begin="0" end="3600" probability="0.012802" /><flow id="truck_top0G0" type="truck" from="top0G0" begin="0" end="3600" probability="0.011344" /><flow id="truck_top1G1" type="truck" from="top1G1" begin="0" end="3600" probability="0.011714" /><flow id="truck_top2G2" type="truck" from="top2G2" begin="0" end="3600" probability="0.011127" /><flow id="truck_top3G3" type="truck" from="top3G3" begin="0" end="3600" probability="0.012548" /><flow id="truck_top4G4" type="truck" from="top4G4" begin="0" end="3600" probability="0.011891" /><flow id="truck_top5G5" type="truck" from="top5G5" begin="0" end="3600" probability="0.012199" /><flow id="truck_top6G6" type="truck" from="top6G6" begin="0" end="3600" probability="0.012076" /><flow id="truck_top7G7" type="truck" from="top7G7" begin="0" end="3600" probability="0.011878" /></routes>