<?xml version="1.0" encoding="UTF-8"?>

<!-- generated on 2026-02-15T19:33:06.992021+08:00 by Eclipse SUMO jtrrouter 1.25.0
<jtrrouterConfiguration xmlns:xsi="http://www.w3.org/2001/XMLSchema-instance" xsi:noNamespaceSchemaLocation="http://sumo.dlr.de/xsd/jtrrouterConfiguration.xsd">

    <input>
        <net-file value="network/sim.net.xml"/>
        <additional-files value="topology/stops.add.xml"/>
        <route-files value="flows/bus.flow.xml"/>
        <turn-ratio-files value="turn.ratio.xml"/>
    </input>

    <output>
        <output-file value="routes/bus.rou.xml"/>
    </output>

    <processing>
        <sink-edges value="A0bottom0,A1bottom1,A2bottom2,A3bottom3,C0top0,C1top1,C2top2,C3top3,A0left0,B0left1,C0left2,A3right0,B3right1,C3right2"/>
    </processing>

    <time>
        <begin value="0"/>
        <end value="4800"/>
    </time>

    <random_number>
        <seed value="1"/>
    </random_number>

</jtrrouterConfiguration>
-->

<routes xmlns:xsi="http://www.w3.org/2001/XMLSchema-instance" xsi:noNamespaceSchemaLocation="http://sumo.dlr.de/xsd/routes_file.xsd">
    <vType id="bus" length="12.00" minGap="3.00" maxSpeed="20.00" speedFactor="normc(0.90,0.05,0.20,2.00)" vClass="bus" width="2.50" color="blue" personCapacity="60" accel="1.2" decel="4.0" sigma="0.5"/>
    <vehicle id="line10_circ.0" type="bus" depart="0.00" color="blue" line="Line10">
        <route color="blue" edges="right1B3 B3C3 C3C2 C2C1 C1C0 C0B0 B0A0 A0A1 A1A2 A2A3 A3B3 B3right1"/>
        <stop busStop="stop_right1B3" duration="20.00"/>
        <stop busStop="stop_B3C3" duration="20.00"/>
        <stop busStop="stop_C3C2" duration="20.00"/>
        <stop busStop="stop_C2C1" duration="20.00"/>
        <stop busStop="stop_C1C0" duration="20.00"/>
        <stop busStop="stop_C0B0" duration="20.00"/>
        <stop busStop="stop_B0A0" duration="20.00"/>
        <stop busStop="stop_A0A1" duration="20.00"/>
        <stop busStop="stop_A1A2" duration="20.00"/>
        <stop busStop="stop_A2A3" duration="20.00"/>
        <stop busStop="stop_A3B3" duration="20.00"/>
        <stop busStop="stop_B3right1" duration="20.00"/>
    </vehicle>
    <vehicle id="line1_fwd.0" type="bus" depart="0.00" color="blue" line="Line1-fwd">
        <route color="blue" edges="bottom0A0 A0B0 B0B1 B1C1 C1C2 C2B2 B2B3 B3A3 A3bottom3"/>
        <stop busStop="stop_bottom0A0" duration="20.00"/>
        <stop busStop="stop_A0B0" duration="20.00"/>
        <stop busStop="stop_B0B1" duration="20.00"/>
        <stop busStop="stop_B1C1" duration="20.00"/>
        <stop busStop="stop_C1C2" duration="20.00"/>
        <stop busStop="stop_C2B2" duration="20.00"/>
        <stop busStop="stop_B2B3" duration="20.00"/>
        <stop busStop="stop_B3A3" duration="20.00"/>
        <stop busStop="stop_A3bottom3" duration="20.00"/>
    </vehicle>
    <vehicle id="line1_rev.0" type="bus" depart="0.00" color="blue" line="Line1-rev">
        <route color="blue" edges="bottom3A3 A3B3 B3B2 B2C2 C2C1 C1B1 B1B0 B0A0 A0bottom0"/>
        <stop busStop="stop_bottom3A3" duration="20.00"/>
        <stop busStop="stop_A3B3" duration="20.00"/>
        <stop busStop="stop_B3B2" duration="20.00"/>
        <stop busStop="stop_B2C2" duration="20.00"/>
        <stop busStop="stop_C2C1" duration="20.00"/>
        <stop busStop="stop_C1B1" duration="20.00"/>
        <stop busStop="stop_B1B0" duration="20.00"/>
        <stop busStop="stop_B0A0" duration="20.00"/>
        <stop busStop="stop_A0bottom0" duration="20.00"/>
    </vehicle>
    <vehicle id="line2_fwd.0" type="bus" depart="0.00" color="blue" line="Line2-fwd">
        <route color="blue" edges="bottom0A0 A0A1 A1B1 B1B0 B0C0 C0C1 C1C2 C2C3 C3B3 B3B2 B2A2 A2A3 A3bottom3"/>
        <stop busStop="stop_bottom0A0" duration="20.00"/>
        <stop busStop="stop_A0A1" duration="20.00"/>
        <stop busStop="stop_A1B1" duration="20.00"/>
        <stop busStop="stop_B1B0" duration="20.00"/>
        <stop busStop="stop_B0C0" duration="20.00"/>
        <stop busStop="stop_C0C1" duration="20.00"/>
        <stop busStop="stop_C1C2" duration="20.00"/>
        <stop busStop="stop_C2C3" duration="20.00"/>
        <stop busStop="stop_C3B3" duration="20.00"/>
        <stop busStop="stop_B3B2" duration="20.00"/>
        <stop busStop="stop_B2A2" duration="20.00"/>
        <stop busStop="stop_A2A3" duration="20.00"/>
        <stop busStop="stop_A3bottom3" duration="20.00"/>
    </vehicle>
    <vehicle id="line2_rev.0" type="bus" depart="0.00" color="blue" line="Line2-rev">
        <route color="blue" edges="bottom3A3 A3A2 A2B2 B2B3 B3C3 C3C2 C2C1 C1C0 C0B0 B0B1 B1A1 A1A0 A0bottom0"/>
        <stop busStop="stop_bottom3A3" duration="20.00"/>
        <stop busStop="stop_A3A2" duration="20.00"/>
        <stop busStop="stop_A2B2" duration="20.00"/>
        <stop busStop="stop_B2B3" duration="20.00"/>
        <stop busStop="stop_B3C3" duration="20.00"/>
        <stop busStop="stop_C3C2" duration="20.00"/>
        <stop busStop="stop_C2C1" duration="20.00"/>
        <stop busStop="stop_C1C0" duration="20.00"/>
        <stop busStop="stop_C0B0" duration="20.00"/>
        <stop busStop="stop_B0B1" duration="20.00"/>
        <stop busStop="stop_B1A1" duration="20.00"/>
        <stop busStop="stop_A1A0" duration="20.00"/>
        <stop busStop="stop_A0bottom0" duration="20.00"/>
    </vehicle>
    <vehicle id="line3_fwd.0" type="bus" depart="0.00" color="blue" line="Line3-fwd">
        <route color="blue" edges="top0C0 C0B0 B0B1 B1A1 A1A2 A2B2 B2B3 B3C3 C3top3"/>
        <stop busStop="stop_top0C0" duration="20.00"/>
        <stop busStop="stop_C0B0" duration="20.00"/>
        <stop busStop="stop_B0B1" duration="20.00"/>
        <stop busStop="stop_B1A1" duration="20.00"/>
        <stop busStop="stop_A1A2" duration="20.00"/>
        <stop busStop="stop_A2B2" duration="20.00"/>
        <stop busStop="stop_B2B3" duration="20.00"/>
        <stop busStop="stop_B3C3" duration="20.00"/>
        <stop busStop="stop_C3top3" duration="20.00"/>
    </vehicle>
    <vehicle id="line3_rev.0" type="bus" depart="0.00" color="blue" line="Line3-rev">
        <route color="blue" edges="top3C3 C3B3 B3B2 B2A2 A2A1 A1B1 B1B0 B0C0 C0top0"/>
        <stop busStop="stop_top3C3" duration="20.00"/>
        <stop busStop="stop_C3B3" duration="20.00"/>
        <stop busStop="stop_B3B2" duration="20.00"/>
        <stop busStop="stop_B2A2" duration="20.00"/>
        <stop busStop="stop_A2A1" duration="20.00"/>
        <stop busStop="stop_A1B1" duration="20.00"/>
        <stop busStop="stop_B1B0" duration="20.00"/>
        <stop busStop="stop_B0C0" duration="20.00"/>
        <stop busStop="stop_C0top0" duration="20.00"/>
    </vehicle>
    <vehicle id="line4_fwd.0" type="bus" depart="0.00" color="blue" line="Line4-fwd">
        <route color="blue" edges="top0C0 C0C1 C1B1 B1B0 B0A0 A0A1 A1A2 A2A3 A3B3 B3B2 B2C2 C2C3 C3top3"/>
        <stop busStop="stop_top0C0" duration="20.00"/>
        <stop busStop="stop_C0C1" duration="20.00"/>
        <stop busStop="stop_C1B1" duration="20.00"/>
        <stop busStop="stop_B1B0" duration="20.00"/>
        <stop busStop="stop_B0A0" duration="20.00"/>
        <stop busStop="stop_A0A1" duration="20.00"/>
        <stop busStop="stop_A1A2" duration="20.00"/>
        <stop busStop="stop_A2A3" duration="20.00"/>
        <stop busStop="stop_A3B3" duration="20.00"/>
        <stop busStop="stop_B3B2" duration="20.00"/>
        <stop busStop="stop_B2C2" duration="20.00"/>
        <stop busStop="stop_C2C3" duration="20.00"/>
        <stop busStop="stop_C3top3" duration="20.00"/>
    </vehicle>
    <vehicle id="line4_rev.0" type="bus" depart="0.00" color="blue" line="Line4-rev">
        <route color="blue" edges="top3C3 C3C2 C2B2 B2B3 B3A3 A3A2 A2A1 A1A0 A0B0 B0B1 B1C1 C1C0 C0top0"/>
        <stop busStop="stop_top3C3" duration="20.00"/>
        <stop busStop="stop_C3C2" duration="20.00"/>
        <stop busStop="stop_C2B2" duration="20.00"/>
        <stop busStop="stop_B2B3" duration="20.00"/>
        <stop busStop="stop_B3A3" duration="20.00"/>
        <stop busStop="stop_A3A2" duration="20.00"/>
        <stop busStop="stop_A2A1" duration="20.00"/>
        <stop busStop="stop_A1A0" duration="20.00"/>
        <stop busStop="stop_A0B0" duration="20.00"/>
        <stop busStop="stop_B0B1" duration="20.00"/>
        <stop busStop="stop_B1C1" duration="20.00"/>
        <stop busStop="stop_C1C0" duration="20.00"/>
        <stop busStop="stop_C0top0" duration="20.00"/>
    </vehicle>
    <vehicle id="line5_fwd.0" type="bus" depart="0.00" color="blue" line="Line5-fwd">
        <route color="blue" edges="left0A0 A0A1 A1A2 A2A3 A3B3 B3B2 B2B1 B1B0 B0C0 C0C1 C1C2 C2C3 C3right2"/>
        <stop busStop="stop_left0A0" duration="20.00"/>
        <stop busStop="stop_A0A1" duration="20.00"/>
        <stop busStop="stop_A1A2" duration="20.00"/>
        <stop busStop="stop_A2A3" duration="20.00"/>
        <stop busStop="stop_A3B3" duration="20.00"/>
        <stop busStop="stop_B3B2" duration="20.00"/>
        <stop busStop="stop_B2B1" duration="20.00"/>
        <stop busStop="stop_B1B0" duration="20.00"/>
        <stop busStop="stop_B0C0" duration="20.00"/>
        <stop busStop="stop_C0C1" duration="20.00"/>
        <stop busStop="stop_C1C2" duration="20.00"/>
        <stop busStop="stop_C2C3" duration="20.00"/>
        <stop busStop="stop_C3right2" duration="20.00"/>
    </vehicle>
    <vehicle id="line5_rev.0" type="bus" depart="0.00" color="blue" line="Line5-rev">
        <route color="blue" edges="right2C3 C3C2 C2C1 C1C0 C0B0 B0B1 B1B2 B2B3 B3A3 A3A2 A2A1 A1A0 A0left0"/>
        <stop busStop="stop_right2C3" duration="20.00"/>
        <stop busStop="stop_C3C2" duration="20.00"/>
        <stop busStop="stop_C2C1" duration="20.00"/>
        <stop busStop="stop_C1C0" duration="20.00"/>
        <stop busStop="stop_C0B0" duration="20.00"/>
        <stop busStop="stop_B0B1" duration="20.00"/>
        <stop busStop="stop_B1B2" duration="20.00"/>
        <stop busStop="stop_B2B3" duration="20.00"/>
        <stop busStop="stop_B3A3" duration="20.00"/>
        <stop busStop="stop_A3A2" duration="20.00"/>
        <stop busStop="stop_A2A1" duration="20.00"/>
        <stop busStop="stop_A1A0" duration="20.00"/>
        <stop busStop="stop_A0left0" duration="20.00"/>
    </vehicle>
    <vehicle id="line6_fwd.0" type="bus" depart="0.00" color="blue" line="Line6-fwd">
        <route color="blue" edges="left2C0 C0C1 C1C2 C2C3 C3B3 B3B2 B2B1 B1B0 B0A0 A0A1 A1A2 A2A3 A3right0"/>
        <stop busStop="stop_left2C0" duration="20.00"/>
        <stop busStop="stop_C0C1" duration="20.00"/>
        <stop busStop="stop_C1C2" duration="20.00"/>
        <stop busStop="stop_C2C3" duration="20.00"/>
        <stop busStop="stop_C3B3" duration="20.00"/>
        <stop busStop="stop_B3B2" duration="20.00"/>
        <stop busStop="stop_B2B1" duration="20.00"/>
        <stop busStop="stop_B1B0" duration="20.00"/>
        <stop busStop="stop_B0A0" duration="20.00"/>
        <stop busStop="stop_A0A1" duration="20.00"/>
        <stop busStop="stop_A1A2" duration="20.00"/>
        <stop busStop="stop_A2A3" duration="20.00"/>
        <stop busStop="stop_A3right0" duration="20.00"/>
    </vehicle>
    <vehicle id="line6_rev.0" type="bus" depart="0.00" color="blue" line="Line6-rev">
        <route color="blue" edges="right0A3 A3A2 A2A1 A1A0 A0B0 B0B1 B1B2 B2B3 B3C3 C3C2 C2C1 C1C0 C0left2"/>
        <stop busStop="stop_right0A3" duration="20.00"/>
        <stop busStop="stop_A3A2" duration="20.00"/>
        <stop busStop="stop_A2A1" duration="20.00"/>
        <stop busStop="stop_A1A0" duration="20.00"/>
        <stop busStop="stop_A0B0" duration="20.00"/>
        <stop busStop="stop_B0B1" duration="20.00"/>
        <stop busStop="stop_B1B2" duration="20.00"/>
        <stop busStop="stop_B2B3" duration="20.00"/>
        <stop busStop="stop_B3C3" duration="20.00"/>
        <stop busStop="stop_C3C2" duration="20.00"/>
        <stop busStop="stop_C2C1" duration="20.00"/>
        <stop busStop="stop_C1C0" duration="20.00"/>
        <stop busStop="stop_C0left2" duration="20.00"/>
    </vehicle>
    <vehicle id="line7_fwd.0" type="bus" depart="0.00" color="blue" line="Line7-fwd">
        <route color="blue" edges="bottom1A1 A1A0 A0B0 B0C0 C0C1 C1C2 C2C3 C3B3 B3A3 A3A2 A2bottom2"/>
        <stop busStop="stop_bottom1A1" duration="20.00"/>
        <stop busStop="stop_A1A0" duration="20.00"/>
        <stop busStop="stop_A0B0" duration="20.00"/>
        <stop busStop="stop_B0C0" duration="20.00"/>
        <stop busStop="stop_C0C1" duration="20.00"/>
        <stop busStop="stop_C1C2" duration="20.00"/>
        <stop busStop="stop_C2C3" duration="20.00"/>
        <stop busStop="stop_C3B3" duration="20.00"/>
        <stop busStop="stop_B3A3" duration="20.00"/>
        <stop busStop="stop_A3A2" duration="20.00"/>
        <stop busStop="stop_A2bottom2" duration="20.00"/>
    </vehicle>
    <vehicle id="line7_rev.0" type="bus" depart="0.00" color="blue" line="Line7-rev">
        <route color="blue" edges="bottom2A2 A2A3 A3B3 B3C3 C3C2 C2C1 C1C0 C0B0 B0A0 A0A1 A1bottom1"/>
        <stop busStop="stop_bottom2A2" duration="20.00"/>
        <stop busStop="stop_A2A3" duration="20.00"/>
        <stop busStop="stop_A3B3" duration="20.00"/>
        <stop busStop="stop_B3C3" duration="20.00"/>
        <stop busStop="stop_C3C2" duration="20.00"/>
        <stop busStop="stop_C2C1" duration="20.00"/>
        <stop busStop="stop_C1C0" duration="20.00"/>
        <stop busStop="stop_C0B0" duration="20.00"/>
        <stop busStop="stop_B0A0" duration="20.00"/>
        <stop busStop="stop_A0A1" duration="20.00"/>
        <stop busStop="stop_A1bottom1" duration="20.00"/>
    </vehicle>
    <vehicle id="line8_fwd.0" type="bus" depart="0.00" color="blue" line="Line8-fwd">
        <route color="blue" edges="top1C1 C1C0 C0B0 B0A0 A0A1 A1A2 A2A3 A3B3 B3C3 C3C2 C2top2"/>
        <stop busStop="stop_top1C1" duration="20.00"/>
        <stop busStop="stop_C1C0" duration="20.00"/>
        <stop busStop="stop_C0B0" duration="20.00"/>
        <stop busStop="stop_B0A0" duration="20.00"/>
        <stop busStop="stop_A0A1" duration="20.00"/>
        <stop busStop="stop_A1A2" duration="20.00"/>
        <stop busStop="stop_A2A3" duration="20.00"/>
        <stop busStop="stop_A3B3" duration="20.00"/>
        <stop busStop="stop_B3C3" duration="20.00"/>
        <stop busStop="stop_C3C2" duration="20.00"/>
        <stop busStop="stop_C2top2" duration="20.00"/>
    </vehicle>
    <vehicle id="line8_rev.0" type="bus" depart="0.00" color="blue" line="Line8-rev">
        <route color="blue" edges="top2C2 C2C3 C3B3 B3A3 A3A2 A2A1 A1A0 A0B0 B0C0 C0C1 C1top1"/>
        <stop busStop="stop_top2C2" duration="20.00"/>
        <stop busStop="stop_C2C3" duration="20.00"/>
        <stop busStop="stop_C3B3" duration="20.00"/>
        <stop busStop="stop_B3A3" duration="20.00"/>
        <stop busStop="stop_A3A2" duration="20.00"/>
        <stop busStop="stop_A2A1" duration="20.00"/>
        <stop busStop="stop_A1A0" duration="20.00"/>
        <stop busStop="stop_A0B0" duration="20.00"/>
        <stop busStop="stop_B0C0" duration="20.00"/>
        <stop busStop="stop_C0C1" duration="20.00"/>
        <stop busStop="stop_C1top1" duration="20.00"/>
    </vehicle>
    <vehicle id="line9_circ.0" type="bus" depart="0.00" color="blue" line="Line9">
        <route color="blue" edges="left1B0 B0A0 A0A1 A1A2 A2A3 A3B3 B3C3 C3C2 C2C1 C1C0 C0B0 B0left1"/>
        <stop busStop="stop_left1B0" duration="20.00"/>
        <stop busStop="stop_B0A0" duration="20.00"/>
        <stop busStop="stop_A0A1" duration="20.00"/>
        <stop busStop="stop_A1A2" duration="20.00"/>
        <stop busStop="stop_A2A3" duration="20.00"/>
        <stop busStop="stop_A3B3" duration="20.00"/>
        <stop busStop="stop_B3C3" duration="20.00"/>
        <stop busStop="stop_C3C2" duration="20.00"/>
        <stop busStop="stop_C2C1" duration="20.00"/>
        <stop busStop="stop_C1C0" duration="20.00"/>
        <stop busStop="stop_C0B0" duration="20.00"/>
        <stop busStop="stop_B0left1" duration="20.00"/>
    </vehicle>
    <vehicle id="line1_fwd.1" type="bus" depart="240.00" color="blue" line="Line1-fwd">
        <route color="blue" edges="bottom0A0 A0B0 B0B1 B1C1 C1C2 C2B2 B2B3 B3A3 A3bottom3"/>
        <stop busStop="stop_bottom0A0" duration="20.00"/>
        <stop busStop="stop_A0B0" duration="20.00"/>
        <stop busStop="stop_B0B1" duration="20.00"/>
        <stop busStop="stop_B1C1" duration="20.00"/>
        <stop busStop="stop_C1C2" duration="20.00"/>
        <stop busStop="stop_C2B2" duration="20.00"/>
        <stop busStop="stop_B2B3" duration="20.00"/>
        <stop busStop="stop_B3A3" duration="20.00"/>
        <stop busStop="stop_A3bottom3" duration="20.00"/>
    </vehicle>
    <vehicle id="line1_rev.1" type="bus" depart="240.00" color="blue" line="Line1-rev">
        <route color="blue" edges="bottom3A3 A3B3 B3B2 B2C2 C2C1 C1B1 B1B0 B0A0 A0bottom0"/>
        <stop busStop="stop_bottom3A3" duration="20.00"/>
        <stop busStop="stop_A3B3" duration="20.00"/>
        <stop busStop="stop_B3B2" duration="20.00"/>
        <stop busStop="stop_B2C2" duration="20.00"/>
        <stop busStop="stop_C2C1" duration="20.00"/>
        <stop busStop="stop_C1B1" duration="20.00"/>
        <stop busStop="stop_B1B0" duration="20.00"/>
        <stop busStop="stop_B0A0" duration="20.00"/>
        <stop busStop="stop_A0bottom0" duration="20.00"/>
    </vehicle>
    <vehicle id="line3_fwd.1" type="bus" depart="240.00" color="blue" line="Line3-fwd">
        <route color="blue" edges="top0C0 C0B0 B0B1 B1A1 A1A2 A2B2 B2B3 B3C3 C3top3"/>
        <stop busStop="stop_top0C0" duration="20.00"/>
        <stop busStop="stop_C0B0" duration="20.00"/>
        <stop busStop="stop_B0B1" duration="20.00"/>
        <stop busStop="stop_B1A1" duration="20.00"/>
        <stop busStop="stop_A1A2" duration="20.00"/>
        <stop busStop="stop_A2B2" duration="20.00"/>
        <stop busStop="stop_B2B3" duration="20.00"/>
        <stop busStop="stop_B3C3" duration="20.00"/>
        <stop busStop="stop_C3top3" duration="20.00"/>
    </vehicle>
    <vehicle id="line3_rev.1" type="bus" depart="240.00" color="blue" line="Line3-rev">
        <route color="blue" edges="top3C3 C3B3 B3B2 B2A2 A2A1 A1B1 B1B0 B0C0 C0top0"/>
        <stop busStop="stop_top3C3" duration="20.00"/>
        <stop busStop="stop_C3B3" duration="20.00"/>
        <stop busStop="stop_B3B2" duration="20.00"/>
        <stop busStop="stop_B2A2" duration="20.00"/>
        <stop busStop="stop_A2A1" duration="20.00"/>
        <stop busStop="stop_A1B1" duration="20.00"/>
        <stop busStop="stop_B1B0" duration="20.00"/>
        <stop busStop="stop_B0C0" duration="20.00"/>
        <stop busStop="stop_C0top0" duration="20.00"/>
    </vehicle>
    <vehicle id="line5_fwd.1" type="bus" depart="240.00" color="blue" line="Line5-fwd">
        <route color="blue" edges="left0A0 A0A1 A1A2 A2A3 A3B3 B3B2 B2B1 B1B0 B0C0 C0C1 C1C2 C2C3 C3right2"/>
        <stop busStop="stop_left0A0" duration="20.00"/>
        <stop busStop="stop_A0A1" duration="20.00"/>
        <stop busStop="stop_A1A2" duration="20.00"/>
        <stop busStop="stop_A2A3" duration="20.00"/>
        <stop busStop="stop_A3B3" duration="20.00"/>
        <stop busStop="stop_B3B2" duration="20.00"/>
        <stop busStop="stop_B2B1" duration="20.00"/>
        <stop busStop="stop_B1B0" duration="20.00"/>
        <stop busStop="stop_B0C0" duration="20.00"/>
        <stop busStop="stop_C0C1" duration="20.00"/>
        <stop busStop="stop_C1C2" duration="20.00"/>
        <stop busStop="stop_C2C3" duration="20.00"/>
        <stop busStop="stop_C3right2" duration="20.00"/>
    </vehicle>
    <vehicle id="line5_rev.1" type="bus" depart="240.00" color="blue" line="Line5-rev">
        <route color="blue" edges="right2C3 C3C2 C2C1 C1C0 C0B0 B0B1 B1B2 B2B3 B3A3 A3A2 A2A1 A1A0 A0left0"/>
        <stop busStop="stop_right2C3" duration="20.00"/>
        <stop busStop="stop_C3C2" duration="20.00"/>
        <stop busStop="stop_C2C1" duration="20.00"/>
        <stop busStop="stop_C1C0" duration="20.00"/>
        <stop busStop="stop_C0B0" duration="20.00"/>
        <stop busStop="stop_B0B1" duration="20.00"/>
        <stop busStop="stop_B1B2" duration="20.00"/>
        <stop busStop="stop_B2B3" duration="20.00"/>
        <stop busStop="stop_B3A3" duration="20.00"/>
        <stop busStop="stop_A3A2" duration="20.00"/>
        <stop busStop="stop_A2A1" duration="20.00"/>
        <stop busStop="stop_A1A0" duration="20.00"/>
        <stop busStop="stop_A0left0" duration="20.00"/>
    </vehicle>
    <vehicle id="line7_fwd.1" type="bus" depart="240.00" color="blue" line="Line7-fwd">
        <route color="blue" edges="bottom1A1 A1A0 A0B0 B0C0 C0C1 C1C2 C2C3 C3B3 B3A3 A3A2 A2bottom2"/>
        <stop busStop="stop_bottom1A1" duration="20.00"/>
        <stop busStop="stop_A1A0" duration="20.00"/>
        <stop busStop="stop_A0B0" duration="20.00"/>
        <stop busStop="stop_B0C0" duration="20.00"/>
        <stop busStop="stop_C0C1" duration="20.00"/>
        <stop busStop="stop_C1C2" duration="20.00"/>
        <stop busStop="stop_C2C3" duration="20.00"/>
        <stop busStop="stop_C3B3" duration="20.00"/>
        <stop busStop="stop_B3A3" duration="20.00"/>
        <stop busStop="stop_A3A2" duration="20.00"/>
        <stop busStop="stop_A2bottom2" duration="20.00"/>
    </vehicle>
    <vehicle id="line7_rev.1" type="bus" depart="240.00" color="blue" line="Line7-rev">
        <route color="blue" edges="bottom2A2 A2A3 A3B3 B3C3 C3C2 C2C1 C1C0 C0B0 B0A0 A0A1 A1bottom1"/>
        <stop busStop="stop_bottom2A2" duration="20.00"/>
        <stop busStop="stop_A2A3" duration="20.00"/>
        <stop busStop="stop_A3B3" duration="20.00"/>
        <stop busStop="stop_B3C3" duration="20.00"/>
        <stop busStop="stop_C3C2" duration="20.00"/>
        <stop busStop="stop_C2C1" duration="20.00"/>
        <stop busStop="stop_C1C0" duration="20.00"/>
        <stop busStop="stop_C0B0" duration="20.00"/>
        <stop busStop="stop_B0A0" duration="20.00"/>
        <stop busStop="stop_A0A1" duration="20.00"/>
        <stop busStop="stop_A1bottom1" duration="20.00"/>
    </vehicle>
    <vehicle id="line2_fwd.1" type="bus" depart="360.00" color="blue" line="Line2-fwd">
        <route color="blue" edges="bottom0A0 A0A1 A1B1 B1B0 B0C0 C0C1 C1C2 C2C3 C3B3 B3B2 B2A2 A2A3 A3bottom3"/>
        <stop busStop="stop_bottom0A0" duration="20.00"/>
        <stop busStop="stop_A0A1" duration="20.00"/>
        <stop busStop="stop_A1B1" duration="20.00"/>
        <stop busStop="stop_B1B0" duration="20.00"/>
        <stop busStop="stop_B0C0" duration="20.00"/>
        <stop busStop="stop_C0C1" duration="20.00"/>
        <stop busStop="stop_C1C2" duration="20.00"/>
        <stop busStop="stop_C2C3" duration="20.00"/>
        <stop busStop="stop_C3B3" duration="20.00"/>
        <stop busStop="stop_B3B2" duration="20.00"/>
        <stop busStop="stop_B2A2" duration="20.00"/>
        <stop busStop="stop_A2A3" duration="20.00"/>
        <stop busStop="stop_A3bottom3" duration="20.00"/>
    </vehicle>
    <vehicle id="line2_rev.1" type="bus" depart="360.00" color="blue" line="Line2-rev">
        <route color="blue" edges="bottom3A3 A3A2 A2B2 B2B3 B3C3 C3C2 C2C1 C1C0 C0B0 B0B1 B1A1 A1A0 A0bottom0"/>
        <stop busStop="stop_bottom3A3" duration="20.00"/>
        <stop busStop="stop_A3A2" duration="20.00"/>
        <stop busStop="stop_A2B2" duration="20.00"/>
        <stop busStop="stop_B2B3" duration="20.00"/>
        <stop busStop="stop_B3C3" duration="20.00"/>
        <stop busStop="stop_C3C2" duration="20.00"/>
        <stop busStop="stop_C2C1" duration="20.00"/>
        <stop busStop="stop_C1C0" duration="20.00"/>
        <stop busStop="stop_C0B0" duration="20.00"/>
        <stop busStop="stop_B0B1" duration="20.00"/>
        <stop busStop="stop_B1A1" duration="20.00"/>
        <stop busStop="stop_A1A0" duration="20.00"/>
        <stop busStop="stop_A0bottom0" duration="20.00"/>
    </vehicle>
    <vehicle id="line4_fwd.1" type="bus" depart="360.00" color="blue" line="Line4-fwd">
        <route color="blue" edges="top0C0 C0C1 C1B1 B1B0 B0A0 A0A1 A1A2 A2A3 A3B3 B3B2 B2C2 C2C3 C3top3"/>
        <stop busStop="stop_top0C0" duration="20.00"/>
        <stop busStop="stop_C0C1" duration="20.00"/>
        <stop busStop="stop_C1B1" duration="20.00"/>
        <stop busStop="stop_B1B0" duration="20.00"/>
        <stop busStop="stop_B0A0" duration="20.00"/>
        <stop busStop="stop_A0A1" duration="20.00"/>
        <stop busStop="stop_A1A2" duration="20.00"/>
        <stop busStop="stop_A2A3" duration="20.00"/>
        <stop busStop="stop_A3B3" duration="20.00"/>
        <stop busStop="stop_B3B2" duration="20.00"/>
        <stop busStop="stop_B2C2" duration="20.00"/>
        <stop busStop="stop_C2C3" duration="20.00"/>
        <stop busStop="stop_C3top3" duration="20.00"/>
    </vehicle>
    <vehicle id="line4_rev.1" type="bus" depart="360.00" color="blue" line="Line4-rev">
        <route color="blue" edges="top3C3 C3C2 C2B2 B2B3 B3A3 A3A2 A2A1 A1A0 A0B0 B0B1 B1C1 C1C0 C0top0"/>
        <stop busStop="stop_top3C3" duration="20.00"/>
        <stop busStop="stop_C3C2" duration="20.00"/>
        <stop busStop="stop_C2B2" duration="20.00"/>
        <stop busStop="stop_B2B3" duration="20.00"/>
        <stop busStop="stop_B3A3" duration="20.00"/>
        <stop busStop="stop_A3A2" duration="20.00"/>
        <stop busStop="stop_A2A1" duration="20.00"/>
        <stop busStop="stop_A1A0" duration="20.00"/>
        <stop busStop="stop_A0B0" duration="20.00"/>
        <stop busStop="stop_B0B1" duration="20.00"/>
        <stop busStop="stop_B1C1" duration="20.00"/>
        <stop busStop="stop_C1C0" duration="20.00"/>
        <stop busStop="stop_C0top0" duration="20.00"/>
    </vehicle>
    <vehicle id="line6_fwd.1" type="bus" depart="360.00" color="blue" line="Line6-fwd">
        <route color="blue" edges="left2C0 C0C1 C1C2 C2C3 C3B3 B3B2 B2B1 B1B0 B0A0 A0A1 A1A2 A2A3 A3right0"/>
        <stop busStop="stop_left2C0" duration="20.00"/>
        <stop busStop="stop_C0C1" duration="20.00"/>
        <stop busStop="stop_C1C2" duration="20.00"/>
        <stop busStop="stop_C2C3" duration="20.00"/>
        <stop busStop="stop_C3B3" duration="20.00"/>
        <stop busStop="stop_B3B2" duration="20.00"/>
        <stop busStop="stop_B2B1" duration="20.00"/>
        <stop busStop="stop_B1B0" duration="20.00"/>
        <stop busStop="stop_B0A0" duration="20.00"/>
        <stop busStop="stop_A0A1" duration="20.00"/>
        <stop busStop="stop_A1A2" duration="20.00"/>
        <stop busStop="stop_A2A3" duration="20.00"/>
        <stop busStop="stop_A3right0" duration="20.00"/>
    </vehicle>
    <vehicle id="line6_rev.1" type="bus" depart="360.00" color="blue" line="Line6-rev">
        <route color="blue" edges="right0A3 A3A2 A2A1 A1A0 A0B0 B0B1 B1B2 B2B3 B3C3 C3C2 C2C1 C1C0 C0left2"/>
        <stop busStop="stop_right0A3" duration="20.00"/>
        <stop busStop="stop_A3A2" duration="20.00"/>
        <stop busStop="stop_A2A1" duration="20.00"/>
        <stop busStop="stop_A1A0" duration="20.00"/>
        <stop busStop="stop_A0B0" duration="20.00"/>
        <stop busStop="stop_B0B1" duration="20.00"/>
        <stop busStop="stop_B1B2" duration="20.00"/>
        <stop busStop="stop_B2B3" duration="20.00"/>
        <stop busStop="stop_B3C3" duration="20.00"/>
        <stop busStop="stop_C3C2" duration="20.00"/>
        <stop busStop="stop_C2C1" duration="20.00"/>
        <stop busStop="stop_C1C0" duration="20.00"/>
        <stop busStop="stop_C0left2" duration="20.00"/>
    </vehicle>
    <vehicle id="line8_fwd.1" type="bus" depart="360.00" color="blue" line="Line8-fwd">
        <route color="blue" edges="top1C1 C1C0 C0B0 B0A0 A0A1 A1A2 A2A3 A3B3 B3C3 C3C2 C2top2"/>
        <stop busStop="stop_top1C1" duration="20.00"/>
        <stop busStop="stop_C1C0" duration="20.00"/>
        <stop busStop="stop_C0B0" duration="20.00"/>
        <stop busStop="stop_B0A0" duration="20.00"/>
        <stop busStop="stop_A0A1" duration="20.00"/>
        <stop busStop="stop_A1A2" duration="20.00"/>
        <stop busStop="stop_A2A3" duration="20.00"/>
        <stop busStop="stop_A3B3" duration="20.00"/>
        <stop busStop="stop_B3C3" duration="20.00"/>
        <stop busStop="stop_C3C2" duration="20.00"/>
        <stop busStop="stop_C2top2" duration="20.00"/>
    </vehicle>
    <vehicle id="line8_rev.1" type="bus" depart="360.00" color="blue" line="Line8-rev">
        <route color="blue" edges="top2C2 C2C3 C3B3 B3A3 A3A2 A2A1 A1A0 A0B0 B0C0 C0C1 C1top1"/>
        <stop busStop="stop_top2C2" duration="20.00"/>
        <stop busStop="stop_C2C3" duration="20.00"/>
        <stop busStop="stop_C3B3" duration="20.00"/>
        <stop busStop="stop_B3A3" duration="20.00"/>
        <stop busStop="stop_A3A2" duration="20.00"/>
        <stop busStop="stop_A2A1" duration="20.00"/>
        <stop busStop="stop_A1A0" duration="20.00"/>
        <stop busStop="stop_A0B0" duration="20.00"/>
        <stop busStop="stop_B0C0" duration="20.00"/>
        <stop busStop="stop_C0C1" duration="20.00"/>
        <stop busStop="stop_C1top1" duration="20.00"/>
    </vehicle>
    <vehicle id="line1_fwd.2" type="bus" depart="480.00" color="blue" line="Line1-fwd">
        <route color="blue" edges="bottom0A0 A0B0 B0B1 B1C1 C1C2 C2B2 B2B3 B3A3 A3bottom3"/>
        <stop busStop="stop_bottom0A0" duration="20.00"/>
        <stop busStop="stop_A0B0" duration="20.00"/>
        <stop busStop="stop_B0B1" duration="20.00"/>
        <stop busStop="stop_B1C1" duration="20.00"/>
        <stop busStop="stop_C1C2" duration="20.00"/>
        <stop busStop="stop_C2B2" duration="20.00"/>
        <stop busStop="stop_B2B3" duration="20.00"/>
        <stop busStop="stop_B3A3" duration="20.00"/>
        <stop busStop="stop_A3bottom3" duration="20.00"/>
    </vehicle>