<?xml version="1.0" encoding="UTF-8"?>

<!-- generated on 2026-02-15T19:33:07.466842+08:00 by Eclipse SUMO jtrrouter 1.25.0
<jtrrouterConfiguration xmlns:xsi="http://www.w3.org/2001/XMLSchema-instance" xsi:noNamespaceSchemaLocation="http://sumo.dlr.de/xsd/jtrrouterConfiguration.xsd">

    <input>
        <net-file value="network/sim.net.xml"/>
        <additional-files value="topology/stops.add.xml"/>
        <route-files value="flows/suv.flow.xml"/>
        <turn-ratio-files value="turn.ratio.xml"/>
    </input>

    <output>
        <output-file value="routes/suv.rou.xml"/>
    </output>

    <processing>
        <sink-edges value="A0bottom0,A1bottom1,A2bottom2,A3bottom3,C0top0,C1top1,C2top2,C3top3,A0left0,B0left1,C0left2,A3right0,B3right1,C3right2"/>
    </processing>

    <time>
        <begin value="0"/>
        <end value="4800"/>
    </time>

    <random_number>
        <seed value="1"/>
    </random_number>

</jtrrouterConfiguration>
-->

<routes xmlns:xsi="http://www.w3.org/2001/XMLSchema-instance" xsi:noNamespaceSchemaLocation="http://sumo.dlr.de/xsd/routes_file.xsd">
    <vType id="suv" length="5.00" speedFactor="normc(0.95,0.10,0.20,2.00)" vClass="passenger" width="2.00" height="1.80" color="77,77,153" accel="2.2" decel="4.0" sigma="0.5"/>
    <vehicle id="suv_bottom1A1.0" type="suv" depart="3.00">
        <route edges="bottom1A1 A1A2 A2A3 A3right0"/>
    </vehicle>
    <vehicle id="suv_bottom0A0.0" type="suv" depart="4.00">
        <route edges="bottom0A0 A0A1 A1B1 B1C1 C1C2 C2C3 C3right2"/>
    </vehicle>
    <vehicle id="suv_left0A0.0" type="suv" depart="4.00">
        <route edges="left0A0 A0A1 A1bottom1"/>
    </vehicle>
    <vehicle id="suv_top1C1.0" type="suv" depart="4.00">
        <route edges="top1C1 C1B1 B1B2 B2B3 B3C3 C3right2"/>
    </vehicle>
    <vehicle id="suv_bottom2A2.0" type="suv" depart="5.00">
        <route edges="bottom2A2 A2A1 A1bottom1"/>
    </vehicle>
    <vehicle id="suv_right2C3.0" type="suv" depart="7.00">
        <route edges="right2C3 C3C2 C2C1 C1C0 C0top0"/>
    </vehicle>
    <vehicle id="suv_bottom1A1.1" type="suv" depart="12.00">
        <route edges="bottom1A1 A1A2 A2bottom2"/>
    </vehicle>
    <vehicle id="suv_top0C0.0" type="suv" depart="12.00">
        <route edges="top0C0 C0B0 B0A0 A0left0"/>
    </vehicle>
    <vehicle id="suv_bottom2A2.1" type="suv" depart="13.00">
        <route edges="bottom2A2 A2A3 A3B3 B3C3 C3right2"/>
    </vehicle>
    <vehicle id="suv_top0C0.1" type="suv" depart="16.00">
        <route edges="top0C0 C0C1 C1top1"/>
    </vehicle>
    <vehicle id="suv_right2C3.1" type="suv" depart="18.00">
        <route edges="right2C3 C3C2 C2top2"/>
    </vehicle>
    <vehicle id="suv_right1B3.0" type="suv" depart="20.00">
        <route edges="right1B3 B3B2 B2A2 A2A3 A3B3 B3C3 C3C2 C2top2"/>
    </vehicle>
    <vehicle id="suv_right2C3.2" type="suv" depart="21.00">
        <route edges="right2C3 C3C2 C2C1 C1B1 B1B2 B2B3 B3A3 A3right0"/>
    </vehicle>
    <vehicle id="suv_bottom2A2.2" type="suv" depart="23.00">
        <route edges="bottom2A2 A2A3 A3right0"/>
    </vehicle>
    <vehicle id="suv_left2C0.0" type="suv" depart="25.00">
        <route edges="left2C0 C0C1 C1C2 C2C3 C3right2"/>
    </vehicle>
    <vehicle id="suv_bottom0A0.1" type="suv" depart="28.00">
        <route edges="bottom0A0 A0A1 A1A2 A2A3 A3right0"/>
    </vehicle>
    <vehicle id="suv_top0C0.2" type="suv" depart="28.00">
        <route edges="top0C0 C0C1 C1B1 B1B2 B2B3 B3C3 C3right2"/>
    </vehicle>
    <vehicle id="suv_bottom2A2.3" type="suv" depart="31.00">
        <route edges="bottom2A2 A2A3 A3right0"/>
    </vehicle>
    <vehicle id="suv_top0C0.3" type="suv" depart="31.00">
        <route edges="top0C0 C0B0 B0left1"/>
    </vehicle>
    <vehicle id="suv_bottom2A2.4" type="suv" depart="32.00">
        <route edges="bottom2A2 A2A3 A3right0"/>
    </vehicle>
    <vehicle id="suv_top1C1.1" type="suv" depart="32.00">
        <route edges="top1C1 C1C0 C0top0"/>
    </vehicle>
    <vehicle id="suv_bottom3A3.0" type="suv" depart="33.00">
        <route edges="bottom3A3 A3B3 B3B2 B2C2 C2C3 C3B3 B3right1"/>
    </vehicle>
    <vehicle id="suv_bottom2A2.5" type="suv" depart="38.00">
        <route edges="bottom2A2 A2A3 A3bottom3"/>
    </vehicle>
    <vehicle id="suv_top1C1.2" type="suv" depart="38.00">
        <route edges="top1C1 C1B1 B1B2 B2B3 B3right1"/>
    </vehicle>
    <vehicle id="suv_left0A0.1" type="suv" depart="39.00">
        <route edges="left0A0 A0A1 A1bottom1"/>
    </vehicle>
    <vehicle id="suv_bottom1A1.2" type="suv" depart="40.00">
        <route edges="bottom1A1 A1A2 A2A3 A3right0"/>
    </vehicle>
    <vehicle id="suv_bottom1A1.3" type="suv" depart="42.00">
        <route edges="bottom1A1 A1A2 A2A3 A3right0"/>
    </vehicle>
    <vehicle id="suv_top1C1.3" type="suv" depart="42.00">
        <route edges="top1C1 C1B1 B1B0 B0C0 C0C1 C1top1"/>
    </vehicle>
    <vehicle id="suv_right1B3.1" type="suv" depart="43.00">
        <route edges="right1B3 B3B2 B2B1 B1B0 B0A0 A0A1 A1bottom1"/>
    </vehicle>
    <vehicle id="suv_bottom1A1.4" type="suv" depart="44.00">
        <route edges="bottom1A1 A1A0 A0bottom0"/>
    </vehicle>
    <vehicle id="suv_left0A0.2" type="suv" depart="44.00">
        <route edges="left0A0 A0A1 A1A2 A2A3 A3right0"/>
    </vehicle>
    <vehicle id="suv_left1B0.0" type="suv" depart="50.00">
        <route edges="left1B0 B0B1 B1B2 B2C2 C2C3 C3right2"/>
    </vehicle>
    <vehicle id="suv_top0C0.4" type="suv" depart="50.00">
        <route edges="top0C0 C0B0 B0A0 A0A1 A1A2 A2A3 A3right0"/>
    </vehicle>
    <vehicle id="suv_top3C3.0" type="suv" depart="51.00">
        <route edges="top3C3 C3B3 B3right1"/>
    </vehicle>
    <vehicle id="suv_left0A0.3" type="suv" depart="52.00">
        <route edges="left0A0 A0A1 A1bottom1"/>
    </vehicle>
    <vehicle id="suv_bottom0A0.2" type="suv" depart="54.00">
        <route edges="bottom0A0 A0B0 B0B1 B1B2 B2B3 B3C3 C3right2"/>
    </vehicle>
    <vehicle id="suv_top2C2.0" type="suv" depart="56.00">
        <route edges="top2C2 C2B2 B2A2 A2bottom2"/>
    </vehicle>
    <vehicle id="suv_bottom2A2.6" type="suv" depart="57.00">
        <route edges="bottom2A2 A2A1 A1bottom1"/>
    </vehicle>
    <vehicle id="suv_right2C3.3" type="suv" depart="57.00">
        <route edges="right2C3 C3C2 C2B2 B2A2 A2A3 A3bottom3"/>
    </vehicle>
    <vehicle id="suv_left2C0.1" type="suv" depart="61.00">
        <route edges="left2C0 C0C1 C1C2 C2C3 C3right2"/>
    </vehicle>
    <vehicle id="suv_right2C3.4" type="suv" depart="64.00">
        <route edges="right2C3 C3C2 C2C1 C1C0 C0top0"/>
    </vehicle>
    <vehicle id="suv_bottom1A1.5" type="suv" depart="66.00">
        <route edges="bottom1A1 A1A2 A2A3 A3bottom3"/>
    </vehicle>
    <vehicle id="suv_bottom3A3.1" type="suv" depart="70.00">
        <route edges="bottom3A3 A3B3 B3C3 C3right2"/>
    </vehicle>
    <vehicle id="suv_top3C3.1" type="suv" depart="71.00">
        <route edges="top3C3 C3B3 B3right1"/>
    </vehicle>
    <vehicle id="suv_bottom2A2.7" type="suv" depart="72.00">
        <route edges="bottom2A2 A2A1 A1A0 A0left0"/>
    </vehicle>
    <vehicle id="suv_left0A0.4" type="suv" depart="74.00">
        <route edges="left0A0 A0A1 A1A2 A2A3 A3B3 B3right1"/>
    </vehicle>
    <vehicle id="suv_bottom0A0.3" type="suv" depart="76.00">
        <route edges="bottom0A0 A0A1 A1B1 B1C1 C1top1"/>
    </vehicle>
    <vehicle id="suv_left1B0.1" type="suv" depart="76.00">
        <route edges="left1B0 B0B1 B1B2 B2B3 B3right1"/>
    </vehicle>
    <vehicle id="suv_bottom0A0.4" type="suv" depart="77.00">
        <route edges="bottom0A0 A0A1 A1bottom1"/>
    </vehicle>
    <vehicle id="suv_left0A0.5" type="suv" depart="77.00">
        <route edges="left0A0 A0A1 A1A2 A2A3 A3bottom3"/>
    </vehicle>
    <vehicle id="suv_right2C3.5" type="suv" depart="77.00">
        <route edges="right2C3 C3C2 C2C1 C1top1"/>
    </vehicle>
    <vehicle id="suv_right0A3.0" type="suv" depart="78.00">
        <route edges="right0A3 A3A2 A2B2 B2C2 C2C3 C3right2"/>
    </vehicle>
    <vehicle id="suv_top2C2.1" type="suv" depart="78.00">
        <route edges="top2C2 C2B2 B2B3 B3C3 C3right2"/>
    </vehicle>
    <vehicle id="suv_bottom3A3.2" type="suv" depart="79.00">
        <route edges="bottom3A3 A3B3 B3right1"/>
    </vehicle>
    <vehicle id="suv_left0A0.6" type="suv" depart="82.00">
        <route edges="left0A0 A0A1 A1A2 A2bottom2"/>
    </vehicle>
    <vehicle id="suv_left0A0.7" type="suv" depart="86.00">
        <route edges="left0A0 A0A1 A1B1 B1C1 C1C2 C2B2 B2A2 A2A3 A3B3 B3C3 C3top3"/>
    </vehicle>
    <vehicle id="suv_right0A3.1" type="suv" depart="88.00">
        <route edges="right0A3 A3A2 A2bottom2"/>
    </vehicle>
    <vehicle id="suv_right0A3.2" type="suv" depart="89.00">
        <route edges="right0A3 A3A2 A2bottom2"/>
    </vehicle>
    <vehicle id="suv_left1B0.2" type="suv" depart="90.00">
        <route edges="left1B0 B0B1 B1A1 A1A2 A2A3 A3right0"/>
    </vehicle>
    <vehicle id="suv_bottom2A2.8" type="suv" depart="93.00">
        <route edges="bottom2A2 A2A1 A1A0 A0left0"/>
    </vehicle>
    <vehicle id="suv_right1B3.2" type="suv" depart="93.00">
        <route edges="right1B3 B3B2 B2C2 C2C3 C3top3"/>
    </vehicle>
    <vehicle id="suv_bottom1A1.6" type="suv" depart="95.00">
        <route edges="bottom1A1 A1A2 A2A3 A3right0"/>
    </vehicle>
    <vehicle id="suv_top0C0.5" type="suv" depart="95.00">
        <route edges="top0C0 C0B0 B0A0 A0A1 A1B1 B1B0 B0C0 C0C1 C1B1 B1B2 B2B3 B3C3 C3top3"/>
    </vehicle>
    <vehicle id="suv_right2C3.6" type="suv" depart="96.00">
        <route edges="right2C3 C3C2 C2top2"/>
    </vehicle>
    <vehicle id="suv_bottom1A1.7" type="suv" depart="98.00">
        <route edges="bottom1A1 A1A2 A2A3 A3right0"/>
    </vehicle>
    <vehicle id="suv_bottom3A3.3" type="suv" depart="98.00">
        <route edges="bottom3A3 A3B3 B3C3 C3right2"/>
    </vehicle>
    <vehicle id="suv_bottom0A0.5" type="suv" depart="100.00">
        <route edges="bottom0A0 A0A1 A1A2 A2bottom2"/>
    </vehicle>
    <vehicle id="suv_bottom2A2.9" type="suv" depart="100.00">
        <route edges="bottom2A2 A2A3 A3right0"/>
    </vehicle>
    <vehicle id="suv_top3C3.2" type="suv" depart="100.00">
        <route edges="top3C3 C3B3 B3right1"/>
    </vehicle>
    <vehicle id="suv_left1B0.3" type="suv" depart="103.00">
        <route edges="left1B0 B0A0 A0bottom0"/>
    </vehicle>
    <vehicle id="suv_top3C3.3" type="suv" depart="103.00">
        <route edges="top3C3 C3B3 B3A3 A3bottom3"/>
    </vehicle>
    <vehicle id="suv_top3C3.4" type="suv" depart="106.00">
        <route edges="top3C3 C3B3 B3A3 A3bottom3"/>
    </vehicle>
    <vehicle id="suv_top2C2.2" type="suv" depart="107.00">
        <route edges="top2C2 C2B2 B2B3 B3C3 C3right2"/>
    </vehicle>
    <vehicle id="suv_right2C3.7" type="suv" depart="108.00">
        <route edges="right2C3 C3C2 C2C1 C1C0 C0B0 B0A0 A0A1 A1A2 A2bottom2"/>
    </vehicle>
    <vehicle id="suv_right1B3.3" type="suv" depart="109.00">
        <route edges="right1B3 B3B2 B2A2 A2A3 A3right0"/>
    </vehicle>
    <vehicle id="suv_top2C2.3" type="suv" depart="109.00">
        <route edges="top2C2 C2B2 B2B1 B1C1 C1C2 C2C3 C3right2"/>
    </vehicle>
    <vehicle id="suv_left1B0.4" type="suv" depart="111.00">
        <route edges="left1B0 B0B1 B1C1 C1C0 C0B0 B0A0 A0left0"/>
    </vehicle>
    <vehicle id="suv_left2C0.2" type="suv" depart="114.00">
        <route edges="left2C0 C0C1 C1C2 C2top2"/>
    </vehicle>
    <vehicle id="suv_right1B3.4" type="suv" depart="115.00">
        <route edges="right1B3 B3B2 B2B1 B1C1 C1C2 C2C3 C3B3 B3right1"/>
    </vehicle>
    <vehicle id="suv_top0C0.6" type="suv" depart="115.00">
        <route edges="top0C0 C0B0 B0A0 A0bottom0"/>
    </vehicle>
    <vehicle id="suv_left1B0.5" type="suv" depart="120.00">
        <route edges="left1B0 B0B1 B1C1 C1C2 C2C3 C3right2"/>
    </vehicle>
    <vehicle id="suv_top1C1.4" type="suv" depart="121.00">
        <route edges="top1C1 C1C0 C0top0"/>
    </vehicle>
    <vehicle id="suv_bottom2A2.10" type="suv" depart="123.00">
        <route edges="bottom2A2 A2A3 A3right0"/>
    </vehicle>
    <vehicle id="suv_left1B0.6" type="suv" depart="126.00">
        <route edges="left1B0 B0B1 B1C1 C1C2 C2top2"/>
    </vehicle>
    <vehicle id="suv_right2C3.8" type="suv" depart="128.00">
        <route edges="right2C3 C3C2 C2B2 B2B3 B3C3 C3right2"/>
    </vehicle>
    <vehicle id="suv_bottom2A2.11" type="suv" depart="129.00">
        <route edges="bottom2A2 A2A3 A3right0"/>
    </vehicle>
    <vehicle id="suv_bottom1A1.8" type="suv" depart="130.00">
        <route edges="bottom1A1 A1A0 A0left0"/>
    </vehicle>
    <vehicle id="suv_right0A3.3" type="suv" depart="130.00">
        <route edges="right0A3 A3A2 A2A1 A1A0 A0left0"/>
    </vehicle>
    <vehicle id="suv_bottom1A1.9" type="suv" depart="133.00">
        <route edges="bottom1A1 A1A0 A0bottom0"/>
    </vehicle>
    <vehicle id="suv_right0A3.4" type="suv" depart="135.00">
        <route edges="right0A3 A3A2 A2A1 A1bottom1"/>
    </vehicle>
    <vehicle id="suv_bottom0A0.6" type="suv" depart="137.00">
        <route edges="bottom0A0 A0B0 B0C0 C0left2"/>
    </vehicle>
    <vehicle id="suv_right0A3.5" type="suv" depart="137.00">
        <route edges="right0A3 A3A2 A2A1 A1bottom1"/>
    </vehicle>
    <vehicle id="suv_left1B0.7" type="suv" depart="138.00">
        <route edges="left1B0 B0B1 B1A1 A1bottom1"/>
    </vehicle>
    <vehicle id="suv_left2C0.3" type="suv" depart="138.00">
        <route edges="left2C0 C0C1 C1B1 B1A1 A1A0 A0left0"/>
    </vehicle>
    <vehicle id="suv_bottom2A2.12" type="suv" depart="139.00">
        <route edges="bottom2A2 A2A3 A3right0"/>
    </vehicle>
    <vehicle id="suv_bottom3A3.4" type="suv" depart="142.00">
        <route edges="bottom3A3 A3A2 A2A1 A1bottom1"/>
    </vehicle>
    <vehicle id="suv_top1C1.5" type="suv" depart="146.00">
        <route edges="top1C1 C1B1 B1B2 B2B3 B3C3 C3right2"/>
    </vehicle>
    <vehicle id="suv_bottom3A3.5" type="suv" depart="148.00">
        <route edges="bottom3A3 A3A2 A2bottom2"/>
    </vehicle>
    <vehicle id="suv_top3C3.5" type="suv" depart="148.00">
        <route edges="top3C3 C3B3 B3right1"/>
    </vehicle>
    <vehicle id="suv_left0A0.8" type="suv" depart="150.00">
        <route edges="left0A0 A0A1 A1A2 A2A3 A3right0"/>
    </vehicle>
    <vehicle id="suv_left2C0.4" type="suv" depart="154.00">
        <route edges="left2C0 C0B0 B0A0 A0A1 A1A2 A2A3 A3right0"/>
    </vehicle>
    <vehicle id="suv_bottom2A2.13" type="suv" depart="155.00">
        <route edges="bottom2A2 A2A1 A1A0 A0left0"/>
    </vehicle>
    <vehicle id="suv_left0A0.9" type="suv" depart="156.00">
        <route edges="left0A0 A0B0 B0left1"/>
    </vehicle>
    <vehicle id="suv_top2C2.4" type="suv" depart="157.00">
        <route edges="top2C2 C2B2 B2B3 B3right1"/>
    </vehicle>
    <vehicle id="suv_bottom2A2.14" type="suv" depart="159.00">
        <route edges="bottom2A2 A2A3 A3B3 B3C3 C3right2"/>
    </vehicle>
    <vehicle id="suv_left1B0.8" type="suv" depart="161.00">
        <route edges="left1B0 B0B1 B1B2 B2B3 B3C3 C3right2"/>
    </vehicle>
    <vehicle id="suv_right1B3.5" type="suv" depart="163.00">
        <route edges="right1B3 B3B2 B2B1 B1A1 A1A2 A2B2 B2C2 C2top2"/>
    </vehicle>
    <vehicle id="suv_left2C0.5" type="suv" depart="165.00">
        <route edges="left2C0 C0C1 C1top1"/>
    </vehicle>
    <vehicle id="suv_top2C2.5" type="suv" depart="166.00">
        <route edges="top2C2 C2B2 B2B3 B3right1"/>
    </vehicle>
    <vehicle id="suv_bottom2A2.15" type="suv" depart="167.00">
        <route edges="bottom2A2 A2A3 A3B3 B3right1"/>
    </vehicle>
    <vehicle id="suv_top3C3.6" type="suv" depart="170.00">
        <route edges="top3C3 C3B3 B3right1"/>
    </vehicle>
    <vehicle id="suv_top3C3.7" type="suv" depart="171.00">
        <route edges="top3C3 C3B3 B3A3 A3right0"/>
    </vehicle>
    <vehicle id="suv_top3C3.8" type="suv" depart="173.00">
        <route edges="top3C3 C3B3 B3A3 A3right0"/>
    </vehicle>
    <vehicle id="suv_left0A0.10" type="suv" depart="174.00">
        <route edges="left0A0 A0B0 B0C0 C0C1 C1top1"/>
    </vehicle>
    <vehicle id="suv_right1B3.6" type="suv" depart="174.00">
        <route edges="right1B3 B3B2 B2B1 B1A1 A1A2 A2A3 A3right0"/>
    </vehicle>
    <vehicle id="suv_bottom0A0.7" type="suv" depart="175.00">
        <route edges="bottom0A0 A0left0"/>
    </vehicle>
    <vehicle id="suv_left1B0.9" type="suv" depart="175.00">
        <route edges="left1B0 B0B1 B1B2 B2B3 B3C3 C3right2"/>
    </vehicle>
    <vehicle id="suv_top3C3.9" type="suv" depart="176.00">
        <route edges="top3C3 C3B3 B3right1"/>
    </vehicle>
    <vehicle id="suv_right1B3.7" type="suv" depart="177.00">
        <route edges="right1B3 B3B2 B2B1 B1A1 A1A2 A2A3 A3right0"/>
    </vehicle>
    <vehicle id="suv_left2C0.6" type="suv" depart="180.00">
        <route edges="left2C0 C0C1 C1top1"/>
    </vehicle>
    <vehicle id="suv_right0A3.6" type="suv" depart="181.00">
        <route edges="right0A3 A3A2 A2bottom2"/>
    </vehicle>
    <vehicle id="suv_right1B3.8" type="suv" depart="181.00">
        <route edges="right1B3 B3B2 B2B1 B1B0 B0A0 A0left0"/>
    </vehicle>
    <vehicle id="suv_bottom2A2.16" type="suv" depart="183.00">
        <route edges="bottom2A2 A2A3 A3right0"/>
    </vehicle>
    <vehicle id="suv_right0A3.7" type="suv" depart="185.00">
        <route edges="right0A3 A3A2 A2A1 A1B1 B1C1 C1C2 C2top2"/>
    </vehicle>
    <vehicle id="suv_bottom3A3.6" type="suv" depart="186.00">
        <route edges="bottom3A3 A3B3 B3C3 C3right2"/>
    </vehicle>
    <vehicle id="suv_top3C3.10" type="suv" depart="187.00">
        <route edges="top3C3 C3C2 C2C1 C1C0 C0top0"/>
    </vehicle>
    <vehicle id="suv_bottom1A1.10" type="suv" depart="192.00">
        <route edges="bottom1A1 A1A2 A2A3 A3right0"/>
    </vehicle>
    <vehicle id="suv_bottom0A0.8" type="suv" depart="196.00">
        <route edges="bottom0A0 A0A1 A1A2 A2A3 A3B3 B3C3 C3right2"/>
    </vehicle>
    <vehicle id="suv_left1B0.10" type="suv" depart="196.00">
        <route edges="left1B0 B0B1 B1B2 B2B3 B3C3 C3top3"/>
    </vehicle>
    <vehicle id="suv_right2C3.9" type="suv" depart="199.00">
        <route edges="right2C3 C3B3 B3A3 A3right0"/>
    </vehicle>
    <vehicle id="suv_bottom3A3.7" type="suv" depart="200.00">
        <route edges="bottom3A3 A3B3 B3right1"/>
    </vehicle>
    <vehicle id="suv_left0A0.11" type="suv" depart="201.00">
        <route edges="left0A0 A0B0 B0C0 C0C1 C1top1"/>
    </vehicle>
    <vehicle id="suv_bottom0A0.9" type="suv" depart="204.00">
        <route edges="bottom0A0 A0A1 A1B1 B1C1 C1C0 C0top0"/>
    </vehicle>
    <vehicle id="suv_right1B3.9" type="suv" depart="206.00">
        <route edges="right1B3 B3B2 B2A2 A2A3 A3right0"/>
    </vehicle>
    <vehicle id="suv_top1C1.6" type="suv" depart="207.00">
        <route edges="top1C1 C1B1 B1B2 B2A2 A2bottom2"/>
    </vehicle>
    <vehicle id="suv_right1B3.10" type="suv" depart="210.00">
        <route edges="right1B3 B3B2 B2C2 C2C3 C3right2"/>
    </vehicle>
    <vehicle id="suv_top0C0.7" type="suv" depart="210.00">
        <route edges="top0C0 C0B0 B0left1"/>
    </vehicle>
    <vehicle id="suv_top0C0.8" type="suv" depart="211.00">
        <route edges="top0C0 C0B0 B0left1"/>
    </vehicle>
    <vehicle id="suv_top3C3.11" type="suv" depart="213.00">
        <route edges="top3C3 C3B3 B3A3 A3right0"/>
    </vehicle>
    <vehicle id="suv_left2C0.7" type="suv" depart="214.00">
        <route edges="left2C0 C0C1 C1C2 C2C3 C3right2"/>
    </vehicle>
    <vehicle id="suv_right0A3.8" type="suv" depart="214.00">
        <route edges="right0A3 A3A2 A2A1 A1A0 A0left0"/>
    </vehicle>
    <vehicle id="suv_left1B0.11" type="suv" depart="217.00">
        <route edges="left1B0 B0B1 B1B2 B2B3 B3right1"/>
    </vehicle>
    <vehicle id="suv_right1B3.11" type="suv" depart="218.00">
        <route edges="right1B3 B3B2 B2B1 B1B0 B0C0 C0top0"/>
    </vehicle>
    <vehicle id="suv_top1C1.7" type="suv" depart="221.00">
        <route edges="top1C1 C1B1 B1A1 A1A2 A2B2 B2C2 C2C3 C3right2"/>
    </vehicle>
    <vehicle id="suv_top2C2.6" type="suv" depart="221.00">
        <route edges="top2C2 C2B2 B2B3 B3C3 C3right2"/>
    </vehicle>
    <vehicle id="suv_bottom2A2.17" type="suv" depart="222.00">
        <route edges="bottom2A2 A2A3 A3right0"/>
    </vehicle>
    <vehicle id="suv_left2C0.8" type="suv" depart="222.00">
        <route edges="left2C0 C0C1 C1C2 C2B2 B2B3 B3C3 C3C2 C2C1 C1B1 B1A1 A1A2 A2A3 A3right0"/>
    </vehicle>
    <vehicle id="suv_left1B0.12" type="suv" depart="226.00">
        <route edges="left1B0 B0B1 B1B2 B2B3 B3right1"/>
    </vehicle>
    <vehicle id="suv_right2C3.10" type="suv" depart="232.00">
        <route edges="right2C3 C3C2 C2top2"/>
    </vehicle>
    <vehicle id="suv_top2C2.7" type="suv" depart="235.00">
        <route edges="top2C2 C2C1 C1C0 C0B0 B0B1 B1B2 B2B3 B3C3 C3right2"/>
    </vehicle>
    <vehicle id="suv_bottom2A2.18" type="suv" depart="237.00">
        <route edges="bottom2A2 A2A3 A3bottom3"/>
    </vehicle>
    <vehicle id="suv_left1B0.13" type="suv" depart="237.00">
        <route edges="left1B0 B0B1 B1A1 A1A2 A2bottom2"/>
    </vehicle>
    <vehicle id="suv_bottom3A3.8" type="suv" depart="238.00">
        <route edges="bottom3A3 A3B3 B3C3 C3right2"/>
    </vehicle>
    <vehicle id="suv_top2C2.8" type="suv" depart="238.00">
        <route edges="top2C2 C2B2 B2B1 B1B0 B0C0 C0C1 C1C2 C2C3 C3right2"/>
    </vehicle>
    <vehicle id="suv_left1B0.14" type="suv" depart="242.00">
        <route edges="left1B0 B0B1 B1B2 B2B3 B3C3 C3C2 C2C1 C1C0 C0B0 B0left1"/>
    </vehicle>
    <vehicle id="suv_top2C2.9" type="suv" depart="242.00">
        <route edges="top2C2 C2B2 B2B3 B3A3 A3right0"/>
    </vehicle>
    <vehicle id="suv_left0A0.12" type="suv" depart="245.00">
        <route edges="left0A0 A0A1 A1A2 A2A3 A3bottom3"/>
    </vehicle>
    <vehicle id="suv_bottom3A3.9" type="suv" depart="246.00">
        <route edges="bottom3A3 A3A2 A2bottom2"/>
    </vehicle>
    <vehicle id="suv_right1B3.12" type="suv" depart="246.00">
        <route edges="right1B3 B3B2 B2B1 B1B0 B0A0 A0A1 A1A2 A2A3 A3right0"/>
    </vehicle>
    <vehicle id="suv_bottom2A2.19" type="suv" depart="252.00">
        <route edges="bottom2A2 A2A1 A1A0 A0left0"/>
    </vehicle>
    <vehicle id="suv_left0A0.13" type="suv" depart="255.00">
        <route edges="left0A0 A0A1 A1A2 A2A3 A3right0"/>
    </vehicle>
    <vehicle id="suv_right2C3.11" type="suv" depart="255.00">
        <route edges="right2C3 C3C2 C2C1 C1C0 C0B0 B0A0 A0A1 A1B1 B1C1 C1C2 C2C3 C3right2"/>
    </vehicle>
    <vehicle id="suv_bottom0A0.10" type="suv" depart="262.00">
        <route edges="bottom0A0 A0A1 A1A2 A2B2 B2C2 C2C1 C1C0 C0B0 B0A0 A0bottom0"/>
    </vehicle>
    <vehicle id="suv_left2C0.9" type="suv" depart="263.00">
        <route edges="left2C0 C0top0"/>
    </vehicle>
    <vehicle id="suv_right0A3.9" type="suv" depart="265.00">
        <route edges="right0A3 A3B3 B3C3 C3right2"/>
    </vehicle>
    <vehicle id="suv_top2C2.10" type="suv" depart="265.00">
        <route edges="top2C2 C2C1 C1C0 C0top0"/>
    </vehicle>
    <vehicle id="suv_bottom1A1.11" type="suv" depart="266.00">
        <route edges="bottom1A1 A1A2 A2A3 A3right0"/>
    </vehicle>
    <vehicle id="suv_right0A3.10" type="suv" depart="271.00">
        <route edges="right0A3 A3A2 A2B2 B2C2 C2C3 C3right2"/>
    </vehicle>
    <vehicle id="suv_top3C3.12" type="suv" depart="276.00">
        <route edges="top3C3 C3B3 B3right1"/>
    </vehicle>
    <vehicle id="suv_left1B0.15" type="suv" depart="277.00">
        <route edges="left1B0 B0B1 B1A1 A1A2 A2bottom2"/>
    </vehicle>
    <vehicle id="suv_right2C3.12" type="suv" depart="279.00">
        <route edges="right2C3 C3C2 C2C1 C1B1 B1A1 A1bottom1"/>
    </vehicle>
    <vehicle id="suv_top0C0.9" type="suv" depart="279.00">
        <route edges="top0C0 C0B0 B0A0 A0left0"/>
    </vehicle>
    <vehicle id="suv_left2C0.10" type="suv" depart="280.00">
        <route edges="left2C0 C0C1 C1C2 C2top2"/>
    </vehicle>
    <vehicle id="suv_right2C3.13" type="suv" depart="281.00">
        <route edges="right2C3 C3B3 B3right1"/>
    </vehicle>
    <vehicle id="suv_left2C0.11" type="suv" depart="282.00">
        <route edges="left2C0 C0B0 B0left1"/>
    </vehicle>
    <vehicle id="suv_right0A3.11" type="suv" depart="285.00">
        <route edges="right0A3 A3A2 A2A1 A1A0 A0B0 B0left1"/>
    </vehicle>
    <vehicle id="suv_top1C1.8" type="suv" depart="287.00">
        <route edges="top1C1 C1B1 B1B2 B2B3 B3right1"/>
    </vehicle>
    <vehicle id="suv_left0A0.14" type="suv" depart="290.00">
        <route edges="left0A0 A0A1 A1B1 B1C1 C1C2 C2top2"/>
    </vehicle>
    <vehicle id="suv_top1C1.9" type="suv" depart="290.00">
        <route edges="top1C1 C1B1 B1B2 B2A2 A2bottom2"/>
    </vehicle>
    <vehicle id="suv_top2C2.11" type="suv" depart="290.00">
        <route edges="top2C2 C2C1 C1B1 B1B0 B0C0 C0C1 C1C2 C2C3 C3right2"/>
    </vehicle>
    <vehicle id="suv_right0A3.12" type="suv" depart="293.00">
        <route edges="right0A3 A3A2 A2A1 A1A0 A0B0 B0C0 C0C1 C1B1 B1B2 B2B3 B3C3 C3right2"/>
    </vehicle>
    <vehicle id="suv_right0A3.13" type="suv" depart="294.00">
        <route edges="right0A3 A3B3 B3C3 C3right2"/>
    </vehicle>
    <vehicle id="suv_left1B0.16" type="suv" depart="296.00">
        <route edges="left1B0 B0B1 B1B2 B2A2 A2A3 A3right0"/>
    </vehicle>
    <vehicle id="suv_bottom0A0.11" type="suv" depart="297.00">
        <route edges="bottom0A0 A0A1 A1B1 B1C1 C1C2 C2top2"/>
    </vehicle>
    <vehicle id="suv_top0C0.10" type="suv" depart="297.00">
        <route edges="top0C0 C0B0 B0A0 A0A1 A1A2 A2A3 A3right0"/>
    </vehicle>
    <vehicle id="suv_top3C3.13" type="suv" depart="298.00">
        <route edges="top3C3 C3B3 B3right1"/>
    </vehicle>
    <vehicle id="suv_right2C3.14" type="suv" depart="301.00">
        <route edges="right2C3 C3C2 C2C1 C1C0 C0left2"/>
    </vehicle>
    <vehicle id="suv_bottom1A1.12" type="suv" depart="302.00">
        <route edges="bottom1A1 A1A0 A0left0"/>
    </vehicle>
    <vehicle id="suv_bottom3A3.10" type="suv" depart="302.00">
        <route edges="bottom3A3 A3B3 B3right1"/>
    </vehicle>
    <vehicle id="suv_left0A0.15" type="suv" depart="302.00">
        <route edges="left0A0 A0A1 A1A2 A2bottom2"/>
    </vehicle>
    <vehicle id="suv_bottom1A1.13" type="suv" depart="306.00">
        <route edges="bottom1A1 A1A2 A2B2 B2C2 C2C3 C3right2"/>
    </vehicle>
    <vehicle id="suv_bottom0A0.12" type="suv" depart="309.00">
        <route edges="bottom0A0 A0A1 A1A2 A2A3 A3right0"/>
    </vehicle>
    <vehicle id="suv_bottom2A2.20" type="suv" depart="309.00">
        <route edges="bottom2A2 A2A3 A3B3 B3C3 C3right2"/>
    </vehicle>
    <vehicle id="suv_left1B0.17" type="suv" depart="309.00">
        <route edges="left1B0 B0B1 B1C1 C1C0 C0top0"/>
    </vehicle>
    <vehicle id="suv_top2C2.12" type="suv" depart="309.00">
        <route edges="top2C2 C2B2 B2A2 A2A3 A3right0"/>
    </vehicle>
    <vehicle id="suv_left2C0.12" type="suv" depart="311.00">
        <route edges="left2C0 C0B0 B0B1 B1B2 B2B3 B3A3 A3right0"/>
    </vehicle>
    <vehicle id="suv_top1C1.10" type="suv" depart="311.00">
        <route edges="top1C1 C1B1 B1A1 A1A2 A2A3 A3right0"/>
    </vehicle>
    <vehicle id="suv_bottom1A1.14" type="suv" depart="312.00">
        <route edges="bottom1A1 A1A2 A2B2 B2C2 C2C3 C3B3 B3right1"/>
    </vehicle>
    <vehicle id="suv_left2C0.13" type="suv" depart="315.00">
        <route edges="left2C0 C0C1 C1C2 C2C3 C3B3 B3right1"/>
    </vehicle>
    <vehicle id="suv_left1B0.18" type="suv" depart="317.00">
        <route edges="left1B0 B0B1 B1B2 B2A2 A2bottom2"/>
    </vehicle>
    <vehicle id="suv_right0A3.14" type="suv" depart="317.00">
        <route edges="right0A3 A3B3 B3C3 C3right2"/>
    </vehicle>
    <vehicle id="suv_right0A3.15" type="suv" depart="319.00">
        <route edges="right0A3 A3A2 A2A1 A1bottom1"/>
    </vehicle>
    <vehicle id="suv_bottom3A3.11" type="suv" depart="321.00">
        <route edges="bottom3A3 A3B3 B3B2 B2B1 B1B0 B0left1"/>
    </vehicle>
    <vehicle id="suv_bottom0A0.13" type="suv" depart="322.00">
        <route edges="bottom0A0 A0A1 A1A2 A2bottom2"/>
    </vehicle>
    <vehicle id="suv_right2C3.15" type="suv" depart="323.00">
        <route edges="right2C3 C3C2 C2C1 C1C0 C0B0 B0A0 A0bottom0"/>
    </vehicle>
    <vehicle id="suv_right2C3.16" type="suv" depart="324.00">
        <route edges="right2C3 C3C2 C2top2"/>
    </vehicle>
    <vehicle id="suv_top3C3.14" type="suv" depart="327.00">
        <route edges="top3C3 C3B3 B3right1"/>
    </vehicle>
    <vehicle id="suv_bottom0A0.14" type="suv" depart="333.00">
        <route edges="bottom0A0 A0A1 A1A2 A2A3 A3B3 B3C3 C3right2"/>
    </vehicle>
    <vehicle id="suv_top2C2.13" type="suv" depart="334.00">
        <route edges="top2C2 C2C1 C1C0 C0left2"/>
    </vehicle>
    <vehicle id="suv_bottom1A1.15" type="suv" depart="337.00">
        <route edges="bottom1A1 A1A2 A2A3 A3right0"/>
    </vehicle>
    <vehicle id="suv_left0A0.16" type="suv" depart="338.00">
        <route edges="left0A0 A0A1 A1bottom1"/>
    </vehicle>
    <vehicle id="suv_top1C1.11" type="suv" depart="339.00">
        <route edges="top1C1 C1B1 B1B2 B2B3 B3C3 C3C2 C2C1 C1top1"/>
    </vehicle>
    <vehicle id="suv_top2C2.14" type="suv" depart="341.00">
        <route edges="top2C2 C2B2 B2B3 B3C3 C3right2"/>
    </vehicle>
    <vehicle id="suv_top1C1.12" type="suv" depart="343.00">
        <route edges="top1C1 C1B1 B1A1 A1A2 A2A3 A3bottom3"/>
    </vehicle>
    <vehicle id="suv_right1B3.13" type="suv" depart="344.00">
        <route edges="right1B3 B3A3 A3right0"/>
    </vehicle>
    <vehicle id="suv_right2C3.17" type="suv" depart="344.00">
        <route edges="right2C3 C3C2 C2C1 C1B1 B1B2 B2B3 B3C3 C3right2"/>
    </vehicle>
    <vehicle id="suv_top2C2.15" type="suv" depart="347.00">