<?xml version="1.0" encoding="UTF-8"?>

<!-- generated on 2026-02-15T19:33:07.710745+08:00 by Eclipse SUMO jtrrouter 1.25.0
<jtrrouterConfiguration xmlns:xsi="http://www.w3.org/2001/XMLSchema-instance" xsi:noNamespaceSchemaLocation="http://sumo.dlr.de/xsd/jtrrouterConfiguration.xsd">

    <input>
        <net-file value="network/sim.net.xml"/>
        <additional-files value="topology/stops.add.xml"/>
        <route-files value="flows/truck.flow.xml"/>
        <turn-ratio-files value="turn.ratio.xml"/>
    </input>

    <output>
        <output-file value="routes/truck.rou.xml"/>
    </output>

    <processing>
        <sink-edges value="A0bottom0,A1bottom1,A2bottom2,A3bottom3,C0top0,C1top1,C2top2,C3top3,A0left0,B0left1,C0left2,A3right0,B3right1,C3right2"/>
    </processing>

    <time>
        <begin value="0"/>
        <end value="4800"/>
    </time>

    <random_number>
        <seed value="1"/>
    </random_number>

</jtrrouterConfiguration>
-->

<routes xmlns:xsi="http://www.w3.org/2001/XMLSchema-instance" xsi:noNamespaceSchemaLocation="http://sumo.dlr.de/xsd/routes_file.xsd">
    <vType id="truck" length="8.00" speedFactor="normc(0.85,0.08,0.20,2.00)" vClass="truck" width="2.50" height="3.00" color="153,102,51" accel="1.3" decel="3.5" sigma="0.3"/>
    <vehicle id="truck_bottom1A1.0" type="truck" depart="3.00">
        <route edges="bottom1A1 A1A2 A2A3 A3right0"/>
    </vehicle>
    <vehicle id="truck_bottom0A0.0" type="truck" depart="4.00">
        <route edges="bottom0A0 A0A1 A1B1 B1C1 C1C2 C2C3 C3right2"/>
    </vehicle>
    <vehicle id="truck_top1C1.0" type="truck" depart="4.00">
        <route edges="top1C1 C1B1 B1B2 B2B3 B3C3 C3right2"/>
    </vehicle>
    <vehicle id="truck_bottom2A2.0" type="truck" depart="5.00">
        <route edges="bottom2A2 A2A3 A3right0"/>
    </vehicle>
    <vehicle id="truck_right2C3.0" type="truck" depart="7.00">
        <route edges="right2C3 C3B3 B3right1"/>
    </vehicle>
    <vehicle id="truck_right2C3.1" type="truck" depart="21.00">
        <route edges="right2C3 C3C2 C2C1 C1C0 C0top0"/>
    </vehicle>
    <vehicle id="truck_bottom2A2.1" type="truck" depart="31.00">
        <route edges="bottom2A2 A2A3 A3right0"/>
    </vehicle>
    <vehicle id="truck_bottom3A3.0" type="truck" depart="33.00">
        <route edges="bottom3A3 A3B3 B3C3 C3top3"/>
    </vehicle>
    <vehicle id="truck_top1C1.1" type="truck" depart="38.00">
        <route edges="top1C1 C1B1 B1A1 A1A2 A2B2 B2C2 C2top2"/>
    </vehicle>
    <vehicle id="truck_left0A0.0" type="truck" depart="39.00">
        <route edges="left0A0 A0B0 B0left1"/>
    </vehicle>
    <vehicle id="truck_top3C3.0" type="truck" depart="51.00">
        <route edges="top3C3 C3C2 C2B2 B2B3 B3A3 A3bottom3"/>
    </vehicle>
    <vehicle id="truck_right2C3.2" type="truck" depart="57.00">
        <route edges="right2C3 C3B3 B3right1"/>
    </vehicle>
    <vehicle id="truck_right2C3.3" type="truck" depart="77.00">
        <route edges="right2C3 C3C2 C2C1 C1B1 B1B2 B2B3 B3A3 A3right0"/>
    </vehicle>
    <vehicle id="truck_right0A3.0" type="truck" depart="78.00">
        <route edges="right0A3 A3B3 B3right1"/>
    </vehicle>
    <vehicle id="truck_top2C2.0" type="truck" depart="78.00">
        <route edges="top2C2 C2B2 B2B3 B3C3 C3right2"/>
    </vehicle>
    <vehicle id="truck_bottom3A3.1" type="truck" depart="79.00">
        <route edges="bottom3A3 A3B3 B3C3 C3right2"/>
    </vehicle>
    <vehicle id="truck_left0A0.1" type="truck" depart="82.00">
        <route edges="left0A0 A0A1 A1bottom1"/>
    </vehicle>
    <vehicle id="truck_left0A0.2" type="truck" depart="86.00">
        <route edges="left0A0 A0A1 A1A2 A2B2 B2C2 C2C3 C3right2"/>
    </vehicle>
    <vehicle id="truck_right0A3.1" type="truck" depart="88.00">
        <route edges="right0A3 A3B3 B3B2 B2C2 C2C3 C3right2"/>
    </vehicle>
    <vehicle id="truck_right0A3.2" type="truck" depart="89.00">
        <route edges="right0A3 A3B3 B3C3 C3right2"/>
    </vehicle>
    <vehicle id="truck_left1B0.0" type="truck" depart="90.00">
        <route edges="left1B0 B0A0 A0left0"/>
    </vehicle>
    <vehicle id="truck_right1B3.0" type="truck" depart="93.00">
        <route edges="right1B3 B3B2 B2A2 A2bottom2"/>
    </vehicle>
    <vehicle id="truck_bottom2A2.2" type="truck" depart="100.00">
        <route edges="bottom2A2 A2A3 A3bottom3"/>
    </vehicle>
    <vehicle id="truck_top3C3.1" type="truck" depart="106.00">
        <route edges="top3C3 C3B3 B3right1"/>
    </vehicle>
    <vehicle id="truck_top2C2.1" type="truck" depart="107.00">
        <route edges="top2C2 C2B2 B2B3 B3C3 C3top3"/>
    </vehicle>
    <vehicle id="truck_right1B3.1" type="truck" depart="109.00">
        <route edges="right1B3 B3B2 B2B1 B1B0 B0C0 C0C1 C1C2 C2C3 C3right2"/>
    </vehicle>
    <vehicle id="truck_top2C2.2" type="truck" depart="109.00">
        <route edges="top2C2 C2B2 B2B1 B1C1 C1C0 C0top0"/>
    </vehicle>
    <vehicle id="truck_right1B3.2" type="truck" depart="115.00">
        <route edges="right1B3 B3B2 B2A2 A2A1 A1bottom1"/>
    </vehicle>
    <vehicle id="truck_top0C0.0" type="truck" depart="115.00">
        <route edges="top0C0 C0B0 B0A0 A0A1 A1A2 A2A3 A3right0"/>
    </vehicle>
    <vehicle id="truck_left1B0.1" type="truck" depart="126.00">
        <route edges="left1B0 B0B1 B1B2 B2C2 C2C3 C3right2"/>
    </vehicle>
    <vehicle id="truck_bottom2A2.3" type="truck" depart="129.00">
        <route edges="bottom2A2 A2A3 A3right0"/>
    </vehicle>
    <vehicle id="truck_right0A3.3" type="truck" depart="135.00">
        <route edges="right0A3 A3A2 A2A1 A1A0 A0left0"/>
    </vehicle>
    <vehicle id="truck_left1B0.2" type="truck" depart="138.00">
        <route edges="left1B0 B0B1 B1C1 C1C0 C0top0"/>
    </vehicle>
    <vehicle id="truck_left2C0.0" type="truck" depart="154.00">
        <route edges="left2C0 C0C1 C1B1 B1B0 B0C0 C0left2"/>
    </vehicle>
    <vehicle id="truck_bottom2A2.4" type="truck" depart="155.00">
        <route edges="bottom2A2 A2A3 A3B3 B3B2 B2C2 C2C1 C1top1"/>
    </vehicle>
    <vehicle id="truck_top2C2.3" type="truck" depart="157.00">
        <route edges="top2C2 C2B2 B2A2 A2A1 A1A0 A0bottom0"/>
    </vehicle>
    <vehicle id="truck_left1B0.3" type="truck" depart="161.00">
        <route edges="left1B0 B0B1 B1B2 B2B3 B3C3 C3right2"/>
    </vehicle>
    <vehicle id="truck_right1B3.3" type="truck" depart="163.00">
        <route edges="right1B3 B3B2 B2B1 B1B0 B0C0 C0C1 C1C2 C2C3 C3right2"/>
    </vehicle>
    <vehicle id="truck_top2C2.4" type="truck" depart="166.00">
        <route edges="top2C2 C2B2 B2B3 B3C3 C3C2 C2C1 C1C0 C0left2"/>
    </vehicle>
    <vehicle id="truck_top3C3.2" type="truck" depart="171.00">
        <route edges="top3C3 C3B3 B3A3 A3bottom3"/>
    </vehicle>
    <vehicle id="truck_left0A0.3" type="truck" depart="174.00">
        <route edges="left0A0 A0B0 B0C0 C0left2"/>
    </vehicle>
    <vehicle id="truck_bottom0A0.1" type="truck" depart="175.00">
        <route edges="bottom0A0 A0A1 A1bottom1"/>
    </vehicle>
    <vehicle id="truck_left2C0.1" type="truck" depart="180.00">
        <route edges="left2C0 C0C1 C1C2 C2C3 C3top3"/>
    </vehicle>
    <vehicle id="truck_right0A3.4" type="truck" depart="181.00">
        <route edges="right0A3 A3A2 A2bottom2"/>
    </vehicle>
    <vehicle id="truck_right1B3.4" type="truck" depart="181.00">
        <route edges="right1B3 B3B2 B2B1 B1B0 B0C0 C0top0"/>
    </vehicle>
    <vehicle id="truck_bottom0A0.2" type="truck" depart="196.00">
        <route edges="bottom0A0 A0A1 A1bottom1"/>
    </vehicle>
    <vehicle id="truck_bottom1A1.1" type="truck" depart="207.00">
        <route edges="bottom1A1 A1A2 A2A3 A3B3 B3C3 C3right2"/>
    </vehicle>
    <vehicle id="truck_right2C3.4" type="truck" depart="212.00">
        <route edges="right2C3 C3C2 C2C1 C1top1"/>
    </vehicle>
    <vehicle id="truck_bottom2A2.5" type="truck" depart="215.00">
        <route edges="bottom2A2 A2A3 A3B3 B3C3 C3C2 C2C1 C1top1"/>
    </vehicle>
    <vehicle id="truck_top1C1.2" type="truck" depart="216.00">
        <route edges="top1C1 C1B1 B1B2 B2A2 A2A3 A3right0"/>
    </vehicle>
    <vehicle id="truck_bottom1A1.2" type="truck" depart="218.00">
        <route edges="bottom1A1 A1A2 A2B2 B2C2 C2C1 C1C0 C0B0 B0B1 B1B2 B2A2 A2A3 A3right0"/>
    </vehicle>
    <vehicle id="truck_bottom3A3.2" type="truck" depart="230.00">
        <route edges="bottom3A3 A3B3 B3C3 C3right2"/>
    </vehicle>
    <vehicle id="truck_top3C3.3" type="truck" depart="232.00">
        <route edges="top3C3 C3B3 B3A3 A3bottom3"/>
    </vehicle>
    <vehicle id="truck_bottom0A0.3" type="truck" depart="233.00">
        <route edges="bottom0A0 A0A1 A1B1 B1B2 B2A2 A2A1 A1bottom1"/>
    </vehicle>
    <vehicle id="truck_top0C0.1" type="truck" depart="237.00">
        <route edges="top0C0 C0B0 B0A0 A0left0"/>
    </vehicle>
    <vehicle id="truck_top3C3.4" type="truck" depart="244.00">
        <route edges="top3C3 C3C2 C2C1 C1C0 C0top0"/>
    </vehicle>
    <vehicle id="truck_right2C3.5" type="truck" depart="257.00">
        <route edges="right2C3 C3C2 C2C1 C1B1 B1B2 B2B3 B3C3 C3right2"/>
    </vehicle>
    <vehicle id="truck_bottom3A3.3" type="truck" depart="264.00">
        <route edges="bottom3A3 A3B3 B3C3 C3right2"/>
    </vehicle>
    <vehicle id="truck_left0A0.4" type="truck" depart="268.00">
        <route edges="left0A0 A0A1 A1B1 B1C1 C1C2 C2C3 C3right2"/>
    </vehicle>
    <vehicle id="truck_left1B0.4" type="truck" depart="271.00">
        <route edges="left1B0 B0A0 A0bottom0"/>
    </vehicle>
    <vehicle id="truck_right0A3.5" type="truck" depart="274.00">
        <route edges="right0A3 A3A2 A2bottom2"/>
    </vehicle>
    <vehicle id="truck_left2C0.2" type="truck" depart="282.00">
        <route edges="left2C0 C0top0"/>
    </vehicle>
    <vehicle id="truck_bottom0A0.4" type="truck" depart="291.00">
        <route edges="bottom0A0 A0A1 A1A2 A2A3 A3B3 B3B2 B2C2 C2C3 C3B3 B3A3 A3right0"/>
    </vehicle>
    <vehicle id="truck_bottom1A1.3" type="truck" depart="291.00">
        <route edges="bottom1A1 A1A2 A2bottom2"/>
    </vehicle>
    <vehicle id="truck_right2C3.6" type="truck" depart="303.00">
        <route edges="right2C3 C3C2 C2C1 C1B1 B1B2 B2A2 A2A3 A3right0"/>
    </vehicle>
    <vehicle id="truck_bottom0A0.5" type="truck" depart="304.00">
        <route edges="bottom0A0 A0B0 B0C0 C0C1 C1C2 C2C3 C3top3"/>
    </vehicle>
    <vehicle id="truck_top1C1.3" type="truck" depart="304.00">
        <route edges="top1C1 C1B1 B1B2 B2C2 C2C3 C3B3 B3A3 A3bottom3"/>
    </vehicle>
    <vehicle id="truck_right0A3.6" type="truck" depart="307.00">
        <route edges="right0A3 A3A2 A2A1 A1A0 A0bottom0"/>
    </vehicle>
    <vehicle id="truck_left2C0.3" type="truck" depart="310.00">
        <route edges="left2C0 C0B0 B0B1 B1B2 B2A2 A2A3 A3right0"/>
    </vehicle>
    <vehicle id="truck_top3C3.5" type="truck" depart="314.00">
        <route edges="top3C3 C3B3 B3right1"/>
    </vehicle>
    <vehicle id="truck_top0C0.2" type="truck" depart="325.00">
        <route edges="top0C0 C0B0 B0A0 A0left0"/>
    </vehicle>
    <vehicle id="truck_left2C0.4" type="truck" depart="330.00">
        <route edges="left2C0 C0B0 B0A0 A0A1 A1A2 A2A3 A3B3 B3C3 C3C2 C2B2 B2B1 B1B0 B0C0 C0left2"/>
    </vehicle>
    <vehicle id="truck_top3C3.6" type="truck" depart="335.00">
        <route edges="top3C3 C3B3 B3right1"/>
    </vehicle>
    <vehicle id="truck_left0A0.5" type="truck" depart="339.00">
        <route edges="left0A0 A0A1 A1A2 A2A3 A3right0"/>
    </vehicle>
    <vehicle id="truck_bottom3A3.4" type="truck" depart="345.00">
        <route edges="bottom3A3 A3B3 B3C3 C3right2"/>
    </vehicle>
    <vehicle id="truck_bottom1A1.4" type="truck" depart="355.00">
        <route edges="bottom1A1 A1A2 A2B2 B2B1 B1B0 B0A0 A0A1 A1B1 B1C1 C1C2 C2C3 C3right2"/>
    </vehicle>
    <vehicle id="truck_bottom2A2.6" type="truck" depart="359.00">
        <route edges="bottom2A2 A2A3 A3B3 B3C3 C3right2"/>
    </vehicle>
    <vehicle id="truck_right0A3.7" type="truck" depart="373.00">
        <route edges="right0A3 A3A2 A2B2 B2C2 C2C3 C3right2"/>
    </vehicle>
    <vehicle id="truck_top2C2.5" type="truck" depart="383.00">
        <route edges="top2C2 C2B2 B2B3 B3C3 C3top3"/>
    </vehicle>
    <vehicle id="truck_top3C3.7" type="truck" depart="383.00">
        <route edges="top3C3 C3B3 B3right1"/>
    </vehicle>
    <vehicle id="truck_top0C0.3" type="truck" depart="394.00">
        <route edges="top0C0 C0C1 C1C2 C2C3 C3right2"/>
    </vehicle>
    <vehicle id="truck_left2C0.5" type="truck" depart="400.00">
        <route edges="left2C0 C0C1 C1C2 C2top2"/>
    </vehicle>
    <vehicle id="truck_right2C3.7" type="truck" depart="405.00">
        <route edges="right2C3 C3B3 B3right1"/>
    </vehicle>
    <vehicle id="truck_top3C3.8" type="truck" depart="407.00">
        <route edges="top3C3 C3B3 B3right1"/>
    </vehicle>
    <vehicle id="truck_top3C3.9" type="truck" depart="416.00">
        <route edges="top3C3 C3B3 B3B2 B2B1 B1B0 B0C0 C0C1 C1C2 C2B2 B2B3 B3right1"/>
    </vehicle>
    <vehicle id="truck_top3C3.10" type="truck" depart="427.00">
        <route edges="top3C3 C3B3 B3A3 A3right0"/>
    </vehicle>
    <vehicle id="truck_left2C0.6" type="truck" depart="436.00">
        <route edges="left2C0 C0C1 C1C2 C2C3 C3B3 B3right1"/>
    </vehicle>
    <vehicle id="truck_left2C0.7" type="truck" depart="447.00">
        <route edges="left2C0 C0top0"/>
    </vehicle>
    <vehicle id="truck_left2C0.8" type="truck" depart="449.00">
        <route edges="left2C0 C0C1 C1top1"/>
    </vehicle>
    <vehicle id="truck_bottom2A2.7" type="truck" depart="450.00">
        <route edges="bottom2A2 A2A1 A1A0 A0left0"/>
    </vehicle>
    <vehicle id="truck_left2C0.9" type="truck" depart="454.00">
        <route edges="left2C0 C0C1 C1C2 C2top2"/>
    </vehicle>
    <vehicle id="truck_top3C3.11" type="truck" depart="455.00">
        <route edges="top3C3 C3B3 B3right1"/>
    </vehicle>
    <vehicle id="truck_left2C0.10" type="truck" depart="456.00">
        <route edges="left2C0 C0top0"/>
    </vehicle>
    <vehicle id="truck_bottom2A2.8" type="truck" depart="460.00">
        <route edges="bottom2A2 A2A3 A3B3 B3B2 B2B1 B1B0 B0C0 C0left2"/>
    </vehicle>
    <vehicle id="truck_top1C1.4" type="truck" depart="463.00">
        <route edges="top1C1 C1B1 B1B0 B0C0 C0C1 C1C2 C2C3 C3right2"/>
    </vehicle>
    <vehicle id="truck_bottom0A0.6" type="truck" depart="471.00">
        <route edges="bottom0A0 A0A1 A1B1 B1C1 C1C2 C2B2 B2A2 A2A3 A3right0"/>
    </vehicle>
    <vehicle id="truck_bottom0A0.7" type="truck" depart="489.00">
        <route edges="bottom0A0 A0A1 A1bottom1"/>
    </vehicle>
    <vehicle id="truck_bottom3A3.5" type="truck" depart="489.00">
        <route edges="bottom3A3 A3A2 A2B2 B2C2 C2C3 C3B3 B3right1"/>
    </vehicle>
    <vehicle id="truck_top0C0.4" type="truck" depart="492.00">
        <route edges="top0C0 C0B0 B0A0 A0A1 A1bottom1"/>
    </vehicle>
    <vehicle id="truck_top1C1.5" type="truck" depart="502.00">
        <route edges="top1C1 C1C0 C0top0"/>
    </vehicle>
    <vehicle id="truck_left2C0.11" type="truck" depart="506.00">
        <route edges="left2C0 C0C1 C1C2 C2top2"/>
    </vehicle>
    <vehicle id="truck_bottom2A2.9" type="truck" depart="507.00">
        <route edges="bottom2A2 A2A3 A3right0"/>
    </vehicle>
    <vehicle id="truck_bottom1A1.5" type="truck" depart="513.00">
        <route edges="bottom1A1 A1A2 A2A3 A3right0"/>
    </vehicle>
    <vehicle id="truck_right2C3.8" type="truck" depart="524.00">
        <route edges="right2C3 C3C2 C2C1 C1C0 C0top0"/>
    </vehicle>
    <vehicle id="truck_left2C0.12" type="truck" depart="528.00">
        <route edges="left2C0 C0C1 C1C2 C2C3 C3top3"/>
    </vehicle>
    <vehicle id="truck_top1C1.6" type="truck" depart="529.00">
        <route edges="top1C1 C1B1 B1B2 B2B3 B3C3 C3C2 C2C1 C1C0 C0top0"/>
    </vehicle>
    <vehicle id="truck_top2C2.6" type="truck" depart="536.00">
        <route edges="top2C2 C2B2 B2B3 B3C3 C3right2"/>
    </vehicle>
    <vehicle id="truck_top3C3.12" type="truck" depart="538.00">
        <route edges="top3C3 C3B3 B3right1"/>
    </vehicle>
    <vehicle id="truck_left0A0.6" type="truck" depart="540.00">
        <route edges="left0A0 A0A1 A1A2 A2B2 B2C2 C2C3 C3B3 B3A3 A3right0"/>
    </vehicle>
    <vehicle id="truck_bottom0A0.8" type="truck" depart="541.00">
        <route edges="bottom0A0 A0A1 A1A2 A2A3 A3right0"/>
    </vehicle>
    <vehicle id="truck_left2C0.13" type="truck" depart="541.00">
        <route edges="left2C0 C0C1 C1C2 C2C3 C3B3 B3right1"/>
    </vehicle>
    <vehicle id="truck_bottom1A1.6" type="truck" depart="544.00">
        <route edges="bottom1A1 A1A2 A2A3 A3right0"/>
    </vehicle>
    <vehicle id="truck_bottom3A3.6" type="truck" depart="554.00">
        <route edges="bottom3A3 A3B3 B3C3 C3C2 C2C1 C1C0 C0top0"/>
    </vehicle>
    <vehicle id="truck_top0C0.5" type="truck" depart="561.00">
        <route edges="top0C0 C0B0 B0A0 A0A1 A1A2 A2A3 A3right0"/>
    </vehicle>
    <vehicle id="truck_bottom3A3.7" type="truck" depart="571.00">
        <route edges="bottom3A3 A3A2 A2A1 A1A0 A0bottom0"/>
    </vehicle>
    <vehicle id="truck_top0C0.6" type="truck" depart="572.00">
        <route edges="top0C0 C0B0 B0A0 A0left0"/>
    </vehicle>
    <vehicle id="truck_right2C3.9" type="truck" depart="573.00">
        <route edges="right2C3 C3C2 C2C1 C1C0 C0top0"/>
    </vehicle>
    <vehicle id="truck_right0A3.8" type="truck" depart="578.00">
        <route edges="right0A3 A3A2 A2A1 A1bottom1"/>
    </vehicle>
    <vehicle id="truck_right2C3.10" type="truck" depart="581.00">
        <route edges="right2C3 C3B3 B3right1"/>
    </vehicle>
    <vehicle id="truck_left2C0.14" type="truck" depart="588.00">
        <route edges="left2C0 C0C1 C1top1"/>
    </vehicle>
    <vehicle id="truck_bottom0A0.9" type="truck" depart="589.00">
        <route edges="bottom0A0 A0A1 A1bottom1"/>
    </vehicle>
    <vehicle id="truck_bottom2A2.10" type="truck" depart="591.00">
        <route edges="bottom2A2 A2A1 A1A0 A0bottom0"/>
    </vehicle>
    <vehicle id="truck_bottom3A3.8" type="truck" depart="591.00">
        <route edges="bottom3A3 A3B3 B3C3 C3right2"/>
    </vehicle>
    <vehicle id="truck_left1B0.5" type="truck" depart="597.00">
        <route edges="left1B0 B0B1 B1C1 C1C0 C0top0"/>
    </vehicle>
    <vehicle id="truck_left0A0.7" type="truck" depart="605.00">
        <route edges="left0A0 A0A1 A1B1 B1C1 C1C2 C2top2"/>
    </vehicle>
    <vehicle id="truck_left1B0.6" type="truck" depart="619.00">
        <route edges="left1B0 B0B1 B1B2 B2B3 B3right1"/>
    </vehicle>
    <vehicle id="truck_top0C0.7" type="truck" depart="619.00">
        <route edges="top0C0 C0B0 B0A0 A0A1 A1B1 B1B2 B2B3 B3C3 C3right2"/>
    </vehicle>
    <vehicle id="truck_left1B0.7" type="truck" depart="624.00">
        <route edges="left1B0 B0B1 B1B2 B2C2 C2C3 C3right2"/>
    </vehicle>
    <vehicle id="truck_bottom2A2.11" type="truck" depart="625.00">
        <route edges="bottom2A2 A2A3 A3right0"/>
    </vehicle>
    <vehicle id="truck_right2C3.11" type="truck" depart="632.00">
        <route edges="right2C3 C3C2 C2C1 C1C0 C0B0 B0A0 A0A1 A1bottom1"/>
    </vehicle>
    <vehicle id="truck_top3C3.13" type="truck" depart="636.00">
        <route edges="top3C3 C3B3 B3A3 A3right0"/>
    </vehicle>
    <vehicle id="truck_top3C3.14" type="truck" depart="644.00">
        <route edges="top3C3 C3B3 B3right1"/>
    </vehicle>
    <vehicle id="truck_right2C3.12" type="truck" depart="648.00">
        <route edges="right2C3 C3C2 C2C1 C1top1"/>
    </vehicle>
    <vehicle id="truck_right0A3.9" type="truck" depart="665.00">
        <route edges="right0A3 A3B3 B3B2 B2C2 C2top2"/>
    </vehicle>
    <vehicle id="truck_left2C0.15" type="truck" depart="680.00">
        <route edges="left2C0 C0B0 B0A0 A0A1 A1A2 A2A3 A3right0"/>
    </vehicle>
    <vehicle id="truck_bottom0A0.10" type="truck" depart="682.00">
        <route edges="bottom0A0 A0A1 A1B1 B1B2 B2B3 B3C3 C3C2 C2B2 B2A2 A2bottom2"/>
    </vehicle>
    <vehicle id="truck_top3C3.15" type="truck" depart="691.00">
        <route edges="top3C3 C3B3 B3right1"/>
    </vehicle>
    <vehicle id="truck_bottom0A0.11" type="truck" depart="697.00">
        <route edges="bottom0A0 A0B0 B0left1"/>
    </vehicle>
    <vehicle id="truck_top1C1.7" type="truck" depart="698.00">
        <route edges="top1C1 C1B1 B1B0 B0left1"/>
    </vehicle>
    <vehicle id="truck_bottom1A1.7" type="truck" depart="706.00">
        <route edges="bottom1A1 A1A2 A2B2 B2C2 C2C3 C3B3 B3right1"/>
    </vehicle>
    <vehicle id="truck_top1C1.8" type="truck" depart="708.00">
        <route edges="top1C1 C1B1 B1A1 A1A2 A2A3 A3right0"/>
    </vehicle>
    <vehicle id="truck_left0A0.8" type="truck" depart="710.00">
        <route edges="left0A0 A0bottom0"/>
    </vehicle>
    <vehicle id="truck_bottom3A3.9" type="truck" depart="720.00">
        <route edges="bottom3A3 A3A2 A2A1 A1B1 B1C1 C1C0 C0B0 B0left1"/>
    </vehicle>
    <vehicle id="truck_left1B0.8" type="truck" depart="728.00">
        <route edges="left1B0 B0B1 B1B2 B2A2 A2A3 A3right0"/>
    </vehicle>
    <vehicle id="truck_top3C3.16" type="truck" depart="751.00">
        <route edges="top3C3 C3B3 B3A3 A3bottom3"/>
    </vehicle>
    <vehicle id="truck_top0C0.8" type="truck" depart="763.00">
        <route edges="top0C0 C0B0 B0left1"/>
    </vehicle>
    <vehicle id="truck_bottom2A2.12" type="truck" depart="765.00">
        <route edges="bottom2A2 A2A3 A3right0"/>
    </vehicle>
    <vehicle id="truck_left0A0.9" type="truck" depart="776.00">
        <route edges="left0A0 A0A1 A1A2 A2A3 A3right0"/>
    </vehicle>
    <vehicle id="truck_top2C2.7" type="truck" depart="786.00">
        <route edges="top2C2 C2B2 B2B1 B1B0 B0A0 A0left0"/>
    </vehicle>
    <vehicle id="truck_bottom1A1.8" type="truck" depart="788.00">
        <route edges="bottom1A1 A1A2 A2A3 A3B3 B3C3 C3right2"/>
    </vehicle>
    <vehicle id="truck_top1C1.9" type="truck" depart="830.00">
        <route edges="top1C1 C1B1 B1B2 B2B3 B3C3 C3right2"/>
    </vehicle>
    <vehicle id="truck_top2C2.8" type="truck" depart="833.00">
        <route edges="top2C2 C2B2 B2A2 A2A3 A3right0"/>
    </vehicle>
    <vehicle id="truck_bottom2A2.13" type="truck" depart="840.00">
        <route edges="bottom2A2 A2A3 A3right0"/>
    </vehicle>
    <vehicle id="truck_left1B0.9" type="truck" depart="845.00">
        <route edges="left1B0 B0B1 B1B2 B2B3 B3C3 C3right2"/>
    </vehicle>
    <vehicle id="truck_top2C2.9" type="truck" depart="852.00">
        <route edges="top2C2 C2B2 B2B3 B3A3 A3A2 A2B2 B2C2 C2C3 C3right2"/>
    </vehicle>
    <vehicle id="truck_top3C3.17" type="truck" depart="854.00">
        <route edges="top3C3 C3C2 C2C1 C1B1 B1B2 B2B3 B3A3 A3right0"/>
    </vehicle>
    <vehicle id="truck_bottom1A1.9" type="truck" depart="875.00">
        <route edges="bottom1A1 A1A0 A0left0"/>
    </vehicle>
    <vehicle id="truck_top2C2.10" type="truck" depart="876.00">
        <route edges="top2C2 C2C1 C1C0 C0B0 B0A0 A0A1 A1A2 A2A3 A3B3 B3C3 C3top3"/>
    </vehicle>
    <vehicle id="truck_bottom3A3.10" type="truck" depart="889.00">
        <route edges="bottom3A3 A3B3 B3C3 C3right2"/>
    </vehicle>
    <vehicle id="truck_left2C0.16" type="truck" depart="894.00">
        <route edges="left2C0 C0C1 C1C2 C2B2 B2B3 B3C3 C3right2"/>
    </vehicle>
    <vehicle id="truck_bottom0A0.12" type="truck" depart="900.00">
        <route edges="bottom0A0 A0A1 A1A2 A2A3 A3right0"/>
    </vehicle>
    <vehicle id="truck_top3C3.18" type="truck" depart="904.00">
        <route edges="top3C3 C3B3 B3right1"/>
    </vehicle>
    <vehicle id="truck_top2C2.11" type="truck" depart="909.00">
        <route edges="top2C2 C2B2 B2B3 B3C3 C3C2 C2C1 C1B1 B1B2 B2A2 A2A3 A3right0"/>
    </vehicle>
    <vehicle id="truck_top2C2.12" type="truck" depart="919.00">
        <route edges="top2C2 C2C1 C1C0 C0top0"/>
    </vehicle>
    <vehicle id="truck_bottom2A2.14" type="truck" depart="924.00">
        <route edges="bottom2A2 A2A3 A3right0"/>
    </vehicle>
    <vehicle id="truck_bottom2A2.15" type="truck" depart="934.00">
        <route edges="bottom2A2 A2A3 A3right0"/>
    </vehicle>
    <vehicle id="truck_top2C2.13" type="truck" depart="939.00">
        <route edges="top2C2 C2B2 B2B1 B1A1 A1A2 A2B2 B2C2 C2C3 C3B3 B3right1"/>
    </vehicle>
    <vehicle id="truck_bottom0A0.13" type="truck" depart="941.00">
        <route edges="bottom0A0 A0A1 A1bottom1"/>
    </vehicle>
    <vehicle id="truck_left2C0.17" type="truck" depart="949.00">
        <route edges="left2C0 C0B0 B0left1"/>
    </vehicle>
    <vehicle id="truck_left2C0.18" type="truck" depart="960.00">
        <route edges="left2C0 C0C1 C1C2 C2C3 C3right2"/>
    </vehicle>
    <vehicle id="truck_left2C0.19" type="truck" depart="973.00">
        <route edges="left2C0 C0B0 B0A0 A0bottom0"/>
    </vehicle>
    <vehicle id="truck_bottom2A2.16" type="truck" depart="974.00">
        <route edges="bottom2A2 A2A3 A3right0"/>
    </vehicle>
    <vehicle id="truck_top0C0.9" type="truck" depart="978.00">
        <route edges="top0C0 C0B0 B0A0 A0bottom0"/>
    </vehicle>
    <vehicle id="truck_right0A3.10" type="truck" depart="984.00">
        <route edges="right0A3 A3A2 A2A1 A1A0 A0left0"/>
    </vehicle>
    <vehicle id="truck_bottom3A3.11" type="truck" depart="988.00">
        <route edges="bottom3A3 A3A2 A2A1 A1A0 A0bottom0"/>
    </vehicle>
    <vehicle id="truck_right2C3.13" type="truck" depart="996.00">
        <route edges="right2C3 C3C2 C2C1 C1C0 C0left2"/>
    </vehicle>
    <vehicle id="truck_top3C3.19" type="truck" depart="1010.00">
        <route edges="top3C3 C3B3 B3right1"/>
    </vehicle>
    <vehicle id="truck_left1B0.10" type="truck" depart="1011.00">
        <route edges="left1B0 B0C0 C0top0"/>
    </vehicle>
    <vehicle id="truck_bottom2A2.17" type="truck" depart="1017.00">
        <route edges="bottom2A2 A2A3 A3B3 B3right1"/>
    </vehicle>
    <vehicle id="truck_bottom2A2.18" type="truck" depart="1020.00">
        <route edges="bottom2A2 A2A1 A1B1 B1B0 B0A0 A0A1 A1A2 A2B2 B2B1 B1C1 C1C2 C2top2"/>
    </vehicle>
    <vehicle id="truck_bottom3A3.12" type="truck" depart="1020.00">
        <route edges="bottom3A3 A3B3 B3C3 C3right2"/>
    </vehicle>
    <vehicle id="truck_top2C2.14" type="truck" depart="1020.00">
        <route edges="top2C2 C2B2 B2A2 A2bottom2"/>
    </vehicle>
    <vehicle id="truck_right0A3.11" type="truck" depart="1024.00">
        <route edges="right0A3 A3A2 A2A1 A1A0 A0left0"/>
    </vehicle>
    <vehicle id="truck_left1B0.11" type="truck" depart="1039.00">
        <route edges="left1B0 B0B1 B1B2 B2B3 B3C3 C3right2"/>
    </vehicle>
    <vehicle id="truck_top1C1.10" type="truck" depart="1045.00">
        <route edges="top1C1 C1C0 C0top0"/>
    </vehicle>
    <vehicle id="truck_right1B3.5" type="truck" depart="1051.00">
        <route edges="right1B3 B3B2 B2A2 A2A3 A3right0"/>
    </vehicle>
    <vehicle id="truck_bottom0A0.14" type="truck" depart="1065.00">
        <route edges="bottom0A0 A0A1 A1bottom1"/>
    </vehicle>
    <vehicle id="truck_top2C2.15" type="truck" depart="1066.00">
        <route edges="top2C2 C2B2 B2B3 B3C3 C3right2"/>
    </vehicle>
    <vehicle id="truck_bottom2A2.19" type="truck" depart="1069.00">
        <route edges="bottom2A2 A2A3 A3right0"/>
    </vehicle>
    <vehicle id="truck_top0C0.10" type="truck" depart="1073.00">
        <route edges="top0C0 C0B0 B0A0 A0A1 A1bottom1"/>
    </vehicle>
    <vehicle id="truck_bottom1A1.10" type="truck" depart="1089.00">
        <route edges="bottom1A1 A1A2 A2B2 B2C2 C2C3 C3B3 B3A3 A3bottom3"/>
    </vehicle>
    <vehicle id="truck_top3C3.20" type="truck" depart="1091.00">
        <route edges="top3C3 C3C2 C2C1 C1C0 C0top0"/>
    </vehicle>
    <vehicle id="truck_left1B0.12" type="truck" depart="1092.00">
        <route edges="left1B0 B0B1 B1B2 B2B3 B3C3 C3right2"/>
    </vehicle>
    <vehicle id="truck_right2C3.14" type="truck" depart="1102.00">
        <route edges="right2C3 C3C2 C2B2 B2B3 B3C3 C3right2"/>
    </vehicle>
    <vehicle id="truck_left0A0.10" type="truck" depart="1113.00">
        <route edges="left0A0 A0A1 A1A2 A2A3 A3right0"/>
    </vehicle>
    <vehicle id="truck_top3C3.21" type="truck" depart="1115.00">
        <route edges="top3C3 C3B3 B3right1"/>
    </vehicle>
    <vehicle id="truck_bottom1A1.11" type="truck" depart="1118.00">
        <route edges="bottom1A1 A1A2 A2A3 A3right0"/>
    </vehicle>
    <vehicle id="truck_top2C2.16" type="truck" depart="1122.00">
        <route edges="top2C2 C2B2 B2A2 A2bottom2"/>
    </vehicle>
    <vehicle id="truck_bottom1A1.12" type="truck" depart="1130.00">
        <route edges="bottom1A1 A1A2 A2A3 A3right0"/>
    </vehicle>
    <vehicle id="truck_bottom3A3.13" type="truck" depart="1146.00">
        <route edges="bottom3A3 A3A2 A2bottom2"/>
    </vehicle>
    <vehicle id="truck_top2C2.17" type="truck" depart="1146.00">
        <route edges="top2C2 C2B2 B2B3 B3C3 C3C2 C2top2"/>
    </vehicle>
    <vehicle id="truck_bottom0A0.15" type="truck" depart="1154.00">
        <route edges="bottom0A0 A0A1 A1A2 A2A3 A3right0"/>
    </vehicle>
    <vehicle id="truck_bottom2A2.20" type="truck" depart="1157.00">
        <route edges="bottom2A2 A2A3 A3right0"/>
    </vehicle>
    <vehicle id="truck_left0A0.11" type="truck" depart="1161.00">
        <route edges="left0A0 A0A1 A1A2 A2A3 A3right0"/>
    </vehicle>
    <vehicle id="truck_left1B0.13" type="truck" depart="1174.00">
        <route edges="left1B0 B0B1 B1C1 C1top1"/>
    </vehicle>
    <vehicle id="truck_right1B3.6" type="truck" depart="1178.00">
        <route edges="right1B3 B3B2 B2B1 B1B0 B0C0 C0C1 C1C2 C2C3 C3B3 B3right1"/>
    </vehicle>
    <vehicle id="truck_left0A0.12" type="truck" depart="1181.00">
        <route edges="left0A0 A0A1 A1A2 A2A3 A3B3 B3B2 B2B1 B1B0 B0A0 A0left0"/>
    </vehicle>
    <vehicle id="truck_left2C0.20" type="truck" depart="1188.00">
        <route edges="left2C0 C0C1 C1C2 C2C3 C3right2"/>
    </vehicle>