<?xml version='1.0' encoding='utf-8'?>
<routes xmlns:xsi="http://www.w3.org/2001/XMLSchema-instance" xsi:noNamespaceSchemaLocation="http://sumo.dlr.de/xsd/routes_file.xsd">
    <vType id="truck" vClass="truck" length="8.0" width="2.5" height="3.0" accel="1.3" decel="3.5" sigma="0.3" speedFactor="0.85" speedDev="0.08" color="0.6,0.4,0.2" />
    <flow id="truck_bottom0A0" type="truck" from="bottom0A0" begin="0" end="3600" probability="0.0131" />
    <flow id="truck_bottom1A1" type="truck" from="bottom1A1" begin="0" end="3600" probability="0.0139" />
    <flow id="truck_bottom2A2" type="truck" from="bottom2A2" begin="0" end="3600" probability="0.0128" />
    <flow id="truck_bottom3A3" type="truck" from="bottom3A3" begin="0" end="3600" probability="0.0131" />
    <flow id="truck_left0A0" type="truck" from="left0A0" begin="0" end="3600" probability="0.0137" />
    <flow id="truck_left1B0" type="truck" from="left1B0" begin="0" end="3600" probability="0.0132" />
    <flow id="truck_left2C0" type="truck" from="left2C0" begin="0" end="3600" probability="0.0137" />
    <flow id="truck_left3D0" type="truck" from="left3D0" begin="0" end="3600" probability="0.0132" />
    <flow id="truck_right0A3" type="truck" from="right0A3" begin="0" end="3600" probability="0.0134" />
    <flow id="truck_right1B3" type="truck" from="right1B3" begin="0" end="3600" probability="0.0121" />
    <flow id="truck_right2C3" type="truck" from="right2C3" begin="0" end="3600" probability="0.0125" />
    <flow id="truck_right3D3" type="truck" from="right3D3" begin="0" end="3600" probability="0.0126" />
    <flow id="truck_top0D0" type="truck" from="top0D0" begin="0" end="3600" probability="0.0122" />
    <flow id="truck_top1D1" type="truck" from="top1D1" begin="0" end="3600" probability="0.0125" />
    <flow id="truck_top2D2" type="truck" from="top2D2" begin="0" end="3600" probability="0.0122" />
    <flow id="truck_top3D3" type="truck" from="top3D3" begin="0" end="3600" probability="0.0126" />
</routes>