<?xml version="1.0" encoding="UTF-8"?>

<!-- generated on 2026-04-03T19:27:19.791720+08:00 by Eclipse SUMO jtrrouter 1.25.0
<jtrrouterConfiguration xmlns:xsi="http://www.w3.org/2001/XMLSchema-instance" xsi:noNamespaceSchemaLocation="http://sumo.dlr.de/xsd/jtrrouterConfiguration.xsd">

    <input>
        <net-file value="network/sim.net.xml"/>
        <route-files value="flows/sedan.flow.xml"/>
        <turn-ratio-files value="turn.ratio.xml"/>
    </input>

    <output>
        <output-file value="routes/sedan.rou.xml"/>
    </output>

    <processing>
        <sink-edges value="A0bottom0,A1bottom1,A2bottom2,A3bottom3,D0top0,D1top1,D2top2,D3top3,A0left0,B0left1,C0left2,D0left3,A3right0,B3right1,C3right2,D3right3"/>
    </processing>

    <time>
        <begin value="0"/>
        <end value="3600"/>
    </time>

    <random_number>
        <seed value="1"/>
    </random_number>

</jtrrouterConfiguration>
-->

<routes xmlns:xsi="http://www.w3.org/2001/XMLSchema-instance" xsi:noNamespaceSchemaLocation="http://sumo.dlr.de/xsd/routes_file.xsd">
    <vType id="sedan" length="4.50" speedFactor="normc(1.00,0.10,0.20,2.00)" vClass="passenger" width="1.80" height="1.50" color="204,204,204" accel="2.6" decel="4.5" sigma="0.5"/>
    <vehicle id="sedan_bottom1A1.0" type="sedan" depart="3.00">
        <route edges="bottom1A1 A1A0 A0left0"/>
    </vehicle>
    <vehicle id="sedan_bottom0A0.0" type="sedan" depart="4.00">
        <route edges="bottom0A0 A0B0 B0left1"/>
    </vehicle>
    <vehicle id="sedan_left0A0.0" type="sedan" depart="4.00">
        <route edges="left0A0 A0B0 B0B1 B1C1 C1D1 D1D2 D2D3 D3right3"/>
    </vehicle>
    <vehicle id="sedan_right1B3.0" type="sedan" depart="4.00">
        <route edges="right1B3 B3B2 B2B1 B1C1 C1D1 D1top1"/>
    </vehicle>
    <vehicle id="sedan_right3D3.0" type="sedan" depart="4.00">
        <route edges="right3D3 D3C3 C3right2"/>
    </vehicle>
    <vehicle id="sedan_bottom2A2.0" type="sedan" depart="5.00">
        <route edges="bottom2A2 A2A1 A1A0 A0left0"/>
    </vehicle>
    <vehicle id="sedan_left3D0.0" type="sedan" depart="7.00">
        <route edges="left3D0 D0top0"/>
    </vehicle>
    <vehicle id="sedan_right1B3.1" type="sedan" depart="7.00">
        <route edges="right1B3 B3B2 B2B1 B1B0 B0left1"/>
    </vehicle>
    <vehicle id="sedan_top3D3.0" type="sedan" depart="8.00">
        <route edges="top3D3 D3C3 C3B3 B3B2 B2B1 B1A1 A1bottom1"/>
    </vehicle>
    <vehicle id="sedan_top3D3.1" type="sedan" depart="11.00">
        <route edges="top3D3 D3C3 C3B3 B3A3 A3right0"/>
    </vehicle>
    <vehicle id="sedan_bottom1A1.1" type="sedan" depart="12.00">
        <route edges="bottom1A1 A1B1 B1C1 C1D1 D1top1"/>
    </vehicle>
    <vehicle id="sedan_right2C3.0" type="sedan" depart="12.00">
        <route edges="right2C3 C3D3 D3D2 D2top2"/>
    </vehicle>
    <vehicle id="sedan_bottom2A2.1" type="sedan" depart="13.00">
        <route edges="bottom2A2 A2B2 B2C2 C2D2 D2top2"/>
    </vehicle>
    <vehicle id="sedan_right1B3.2" type="sedan" depart="14.00">
        <route edges="right1B3 B3B2 B2B1 B1B0 B0left1"/>
    </vehicle>
    <vehicle id="sedan_right3D3.1" type="sedan" depart="15.00">
        <route edges="right3D3 D3D2 D2C2 C2B2 B2B3 B3right1"/>
    </vehicle>
    <vehicle id="sedan_top3D3.2" type="sedan" depart="15.00">
        <route edges="top3D3 D3C3 C3B3 B3A3 A3bottom3"/>
    </vehicle>
    <vehicle id="sedan_right2C3.1" type="sedan" depart="16.00">
        <route edges="right2C3 C3C2 C2C1 C1C0 C0D0 D0D1 D1D2 D2D3 D3right3"/>
    </vehicle>
    <vehicle id="sedan_right1B3.3" type="sedan" depart="18.00">
        <route edges="right1B3 B3C3 C3C2 C2C1 C1D1 D1D0 D0C0 C0left2"/>
    </vehicle>
    <vehicle id="sedan_right0A3.0" type="sedan" depart="19.00">
        <route edges="right0A3 A3B3 B3C3 C3C2 C2D2 D2D1 D1D0 D0left3"/>
    </vehicle>
    <vehicle id="sedan_right0A3.1" type="sedan" depart="20.00">
        <route edges="right0A3 A3A2 A2bottom2"/>
    </vehicle>
    <vehicle id="sedan_right1B3.4" type="sedan" depart="21.00">
        <route edges="right1B3 B3B2 B2B1 B1C1 C1D1 D1top1"/>
    </vehicle>
    <vehicle id="sedan_bottom2A2.2" type="sedan" depart="23.00">
        <route edges="bottom2A2 A2B2 B2C2 C2C1 C1C0 C0left2"/>
    </vehicle>
    <vehicle id="sedan_left0A0.1" type="sedan" depart="23.00">
        <route edges="left0A0 A0A1 A1bottom1"/>
    </vehicle>
    <vehicle id="sedan_left1B0.0" type="sedan" depart="24.00">
        <route edges="left1B0 B0B1 B1B2 B2B3 B3A3 A3bottom3"/>
    </vehicle>
    <vehicle id="sedan_left2C0.0" type="sedan" depart="25.00">
        <route edges="left2C0 C0C1 C1C2 C2C3 C3D3 D3top3"/>
    </vehicle>
    <vehicle id="sedan_right3D3.2" type="sedan" depart="25.00">
        <route edges="right3D3 D3right3"/>
    </vehicle>
    <vehicle id="sedan_left1B0.1" type="sedan" depart="27.00">
        <route edges="left1B0 B0left1"/>
    </vehicle>
    <vehicle id="sedan_left2C0.1" type="sedan" depart="27.00">
        <route edges="left2C0 C0left2"/>
    </vehicle>
    <vehicle id="sedan_bottom0A0.1" type="sedan" depart="28.00">
        <route edges="bottom0A0 A0left0"/>
    </vehicle>
    <vehicle id="sedan_right2C3.2" type="sedan" depart="28.00">
        <route edges="right2C3 C3B3 B3right1"/>
    </vehicle>
    <vehicle id="sedan_bottom2A2.3" type="sedan" depart="31.00">
        <route edges="bottom2A2 A2B2 B2C2 C2C3 C3D3 D3top3"/>
    </vehicle>
    <vehicle id="sedan_right2C3.3" type="sedan" depart="31.00">
        <route edges="right2C3 C3C2 C2C1 C1B1 B1B0 B0B1 B1B2 B2C2 C2D2 D2top2"/>
    </vehicle>
    <vehicle id="sedan_bottom2A2.4" type="sedan" depart="32.00">
        <route edges="bottom2A2 A2B2 B2C2 C2D2 D2top2"/>
    </vehicle>
    <vehicle id="sedan_right3D3.3" type="sedan" depart="32.00">
        <route edges="right3D3 D3D2 D2D1 D1C1 C1B1 B1B2 B2B3 B3right1"/>
    </vehicle>
    <vehicle id="sedan_top3D3.3" type="sedan" depart="32.00">
        <route edges="top3D3 D3C3 C3D3 D3top3"/>
    </vehicle>
    <vehicle id="sedan_bottom3A3.0" type="sedan" depart="33.00">
        <route edges="bottom3A3 A3B3 B3C3 C3right2"/>
    </vehicle>
    <vehicle id="sedan_bottom1A1.2" type="sedan" depart="35.00">
        <route edges="bottom1A1 A1B1 B1B2 B2A2 A2bottom2"/>
    </vehicle>
    <vehicle id="sedan_right2C3.4" type="sedan" depart="36.00">
        <route edges="right2C3 C3C2 C2C1 C1C0 C0left2"/>
    </vehicle>
    <vehicle id="sedan_top2D2.0" type="sedan" depart="36.00">
        <route edges="top2D2 D2C2 C2B2 B2B3 B3right1"/>
    </vehicle>
    <vehicle id="sedan_bottom2A2.5" type="sedan" depart="38.00">
        <route edges="bottom2A2 A2B2 B2C2 C2C3 C3right2"/>
    </vehicle>
    <vehicle id="sedan_right3D3.4" type="sedan" depart="38.00">
        <route edges="right3D3 D3D2 D2C2 C2C1 C1B1 B1A1 A1A0 A0B0 B0B1 B1C1 C1C0 C0left2"/>
    </vehicle>
    <vehicle id="sedan_top2D2.1" type="sedan" depart="38.00">
        <route edges="top2D2 D2D3 D3C3 C3B3 B3A3 A3bottom3"/>
    </vehicle>
    <vehicle id="sedan_bottom3A3.1" type="sedan" depart="39.00">
        <route edges="bottom3A3 A3right0"/>
    </vehicle>
    <vehicle id="sedan_left0A0.2" type="sedan" depart="39.00">
        <route edges="left0A0 A0bottom0"/>
    </vehicle>
    <vehicle id="sedan_bottom1A1.3" type="sedan" depart="40.00">
        <route edges="bottom1A1 A1A2 A2bottom2"/>
    </vehicle>
    <vehicle id="sedan_top2D2.2" type="sedan" depart="40.00">
        <route edges="top2D2 D2D1 D1D0 D0left3"/>
    </vehicle>
    <vehicle id="sedan_bottom1A1.4" type="sedan" depart="42.00">
        <route edges="bottom1A1 A1bottom1"/>
    </vehicle>
    <vehicle id="sedan_right3D3.5" type="sedan" depart="42.00">
        <route edges="right3D3 D3right3"/>
    </vehicle>
    <vehicle id="sedan_right0A3.2" type="sedan" depart="43.00">
        <route edges="right0A3 A3A2 A2A1 A1bottom1"/>
    </vehicle>
    <vehicle id="sedan_bottom1A1.5" type="sedan" depart="44.00">
        <route edges="bottom1A1 A1B1 B1B2 B2C2 C2D2 D2D3 D3right3"/>
    </vehicle>
    <vehicle id="sedan_left0A0.3" type="sedan" depart="44.00">
        <route edges="left0A0 A0A1 A1bottom1"/>
    </vehicle>
    <vehicle id="sedan_top2D2.3" type="sedan" depart="44.00">
        <route edges="top2D2 D2C2 C2B2 B2A2 A2bottom2"/>
    </vehicle>
    <vehicle id="sedan_left2C0.2" type="sedan" depart="45.00">
        <route edges="left2C0 C0D0 D0left3"/>
    </vehicle>
    <vehicle id="sedan_left0A0.4" type="sedan" depart="46.00">
        <route edges="left0A0 A0A1 A1bottom1"/>
    </vehicle>
    <vehicle id="sedan_right3D3.6" type="sedan" depart="47.00">
        <route edges="right3D3 D3top3"/>
    </vehicle>
    <vehicle id="sedan_left1B0.2" type="sedan" depart="50.00">
        <route edges="left1B0 B0B1 B1B2 B2C2 C2D2 D2D1 D1D0 D0left3"/>
    </vehicle>
    <vehicle id="sedan_right2C3.5" type="sedan" depart="50.00">
        <route edges="right2C3 C3C2 C2C1 C1C0 C0left2"/>
    </vehicle>
    <vehicle id="sedan_top1D1.0" type="sedan" depart="51.00">
        <route edges="top1D1 D1D2 D2D3 D3top3"/>
    </vehicle>
    <vehicle id="sedan_left0A0.5" type="sedan" depart="52.00">
        <route edges="left0A0 A0A1 A1bottom1"/>
    </vehicle>
    <vehicle id="sedan_bottom0A0.2" type="sedan" depart="54.00">
        <route edges="bottom0A0 A0B0 B0C0 C0C1 C1C2 C2C3 C3right2"/>
    </vehicle>
    <vehicle id="sedan_left1B0.3" type="sedan" depart="54.00">
        <route edges="left1B0 B0B1 B1B2 B2A2 A2bottom2"/>
    </vehicle>
    <vehicle id="sedan_right0A3.3" type="sedan" depart="54.00">
        <route edges="right0A3 A3B3 B3right1"/>
    </vehicle>
    <vehicle id="sedan_top3D3.4" type="sedan" depart="54.00">
        <route edges="top3D3 D3C3 C3B3 B3B2 B2C2 C2D2 D2top2"/>
    </vehicle>
    <vehicle id="sedan_top0D0.0" type="sedan" depart="56.00">
        <route edges="top0D0 D0C0 C0B0 B0left1"/>
    </vehicle>
    <vehicle id="sedan_bottom0A0.3" type="sedan" depart="57.00">
        <route edges="bottom0A0 A0B0 B0A0 A0bottom0"/>
    </vehicle>
    <vehicle id="sedan_bottom2A2.6" type="sedan" depart="57.00">
        <route edges="bottom2A2 A2B2 B2C2 C2D2 D2top2"/>
    </vehicle>
    <vehicle id="sedan_right1B3.5" type="sedan" depart="57.00">
        <route edges="right1B3 B3B2 B2B1 B1B0 B0left1"/>
    </vehicle>
    <vehicle id="sedan_top3D3.5" type="sedan" depart="58.00">
        <route edges="top3D3 D3D2 D2top2"/>
    </vehicle>
    <vehicle id="sedan_right2C3.6" type="sedan" depart="60.00">
        <route edges="right2C3 C3B3 B3A3 A3right0"/>
    </vehicle>
    <vehicle id="sedan_left2C0.3" type="sedan" depart="61.00">
        <route edges="left2C0 C0D0 D0left3"/>
    </vehicle>
    <vehicle id="sedan_right1B3.6" type="sedan" depart="64.00">
        <route edges="right1B3 B3B2 B2B1 B1B0 B0left1"/>
    </vehicle>
    <vehicle id="sedan_bottom3A3.2" type="sedan" depart="65.00">
        <route edges="bottom3A3 A3B3 B3right1"/>
    </vehicle>
    <vehicle id="sedan_bottom1A1.6" type="sedan" depart="66.00">
        <route edges="bottom1A1 A1B1 B1C1 C1D1 D1top1"/>
    </vehicle>
    <vehicle id="sedan_top2D2.4" type="sedan" depart="67.00">
        <route edges="top2D2 D2D1 D1D0 D0left3"/>
    </vehicle>
    <vehicle id="sedan_bottom3A3.3" type="sedan" depart="70.00">
        <route edges="bottom3A3 A3right0"/>
    </vehicle>
    <vehicle id="sedan_left2C0.4" type="sedan" depart="70.00">
        <route edges="left2C0 C0C1 C1C2 C2C3 C3D3 D3top3"/>
    </vehicle>
    <vehicle id="sedan_top1D1.1" type="sedan" depart="71.00">
        <route edges="top1D1 D1C1 C1B1 B1C1 C1D1 D1top1"/>
    </vehicle>
    <vehicle id="sedan_bottom2A2.7" type="sedan" depart="72.00">
        <route edges="bottom2A2 A2B2 B2C2 C2D2 D2top2"/>
    </vehicle>
    <vehicle id="sedan_left1B0.4" type="sedan" depart="73.00">
        <route edges="left1B0 B0B1 B1B2 B2A2 A2A1 A1A0 A0left0"/>
    </vehicle>
    <vehicle id="sedan_top3D3.6" type="sedan" depart="73.00">
        <route edges="top3D3 D3top3"/>
    </vehicle>
    <vehicle id="sedan_left0A0.6" type="sedan" depart="74.00">
        <route edges="left0A0 A0bottom0"/>
    </vehicle>
    <vehicle id="sedan_top0D0.1" type="sedan" depart="75.00">
        <route edges="top0D0 D0C0 C0B0 B0A0 A0left0"/>
    </vehicle>
    <vehicle id="sedan_bottom0A0.4" type="sedan" depart="76.00">
        <route edges="bottom0A0 A0B0 B0C0 C0D0 D0top0"/>
    </vehicle>
    <vehicle id="sedan_left1B0.5" type="sedan" depart="76.00">
        <route edges="left1B0 B0B1 B1B2 B2B3 B3right1"/>
    </vehicle>
    <vehicle id="sedan_bottom0A0.5" type="sedan" depart="77.00">
        <route edges="bottom0A0 A0B0 B0C0 C0D0 D0top0"/>
    </vehicle>
    <vehicle id="sedan_left0A0.7" type="sedan" depart="77.00">
        <route edges="left0A0 A0bottom0"/>
    </vehicle>
    <vehicle id="sedan_right1B3.7" type="sedan" depart="77.00">
        <route edges="right1B3 B3A3 A3bottom3"/>
    </vehicle>
    <vehicle id="sedan_left3D0.1" type="sedan" depart="78.00">
        <route edges="left3D0 D0C0 C0B0 B0A0 A0bottom0"/>
    </vehicle>
    <vehicle id="sedan_top0D0.2" type="sedan" depart="78.00">
        <route edges="top0D0 D0C0 C0B0 B0A0 A0bottom0"/>
    </vehicle>
    <vehicle id="sedan_bottom3A3.4" type="sedan" depart="79.00">
        <route edges="bottom3A3 A3right0"/>
    </vehicle>
    <vehicle id="sedan_right2C3.7" type="sedan" depart="80.00">
        <route edges="right2C3 C3C2 C2B2 B2A2 A2bottom2"/>
    </vehicle>
    <vehicle id="sedan_left0A0.8" type="sedan" depart="82.00">
        <route edges="left0A0 A0A1 A1A2 A2A3 A3bottom3"/>
    </vehicle>
    <vehicle id="sedan_bottom1A1.7" type="sedan" depart="84.00">
        <route edges="bottom1A1 A1A2 A2A3 A3B3 B3C3 C3D3 D3D2 D2D1 D1D0 D0C0 C0C1 C1B1 B1A1 A1bottom1"/>
    </vehicle>
    <vehicle id="sedan_top1D1.2" type="sedan" depart="85.00">
        <route edges="top1D1 D1D0 D0left3"/>
    </vehicle>
    <vehicle id="sedan_left0A0.9" type="sedan" depart="86.00">
        <route edges="left0A0 A0A1 A1A2 A2bottom2"/>
    </vehicle>
    <vehicle id="sedan_top3D3.7" type="sedan" depart="86.00">
        <route edges="top3D3 D3D2 D2top2"/>
    </vehicle>
    <vehicle id="sedan_bottom1A1.8" type="sedan" depart="88.00">
        <route edges="bottom1A1 A1A0 A0left0"/>
    </vehicle>
    <vehicle id="sedan_left3D0.2" type="sedan" depart="88.00">
        <route edges="left3D0 D0top0"/>
    </vehicle>
    <vehicle id="sedan_bottom3A3.5" type="sedan" depart="89.00">
        <route edges="bottom3A3 A3B3 B3C3 C3D3 D3top3"/>
    </vehicle>
    <vehicle id="sedan_left3D0.3" type="sedan" depart="89.00">
        <route edges="left3D0 D0D1 D1top1"/>
    </vehicle>
    <vehicle id="sedan_left1B0.6" type="sedan" depart="90.00">
        <route edges="left1B0 B0C0 C0D0 D0top0"/>
    </vehicle>
    <vehicle id="sedan_bottom2A2.8" type="sedan" depart="91.00">
        <route edges="bottom2A2 A2B2 B2C2 C2C1 C1C0 C0left2"/>
    </vehicle>
    <vehicle id="sedan_bottom2A2.9" type="sedan" depart="92.00">
        <route edges="bottom2A2 A2B2 B2C2 C2D2 D2top2"/>
    </vehicle>
    <vehicle id="sedan_bottom2A2.10" type="sedan" depart="93.00">
        <route edges="bottom2A2 A2B2 B2C2 C2D2 D2top2"/>
    </vehicle>
    <vehicle id="sedan_right0A3.4" type="sedan" depart="93.00">
        <route edges="right0A3 A3A2 A2A1 A1bottom1"/>
    </vehicle>
    <vehicle id="sedan_bottom1A1.9" type="sedan" depart="95.00">
        <route edges="bottom1A1 A1A2 A2bottom2"/>
    </vehicle>
    <vehicle id="sedan_bottom2A2.11" type="sedan" depart="95.00">
        <route edges="bottom2A2 A2A1 A1A0 A0B0 B0left1"/>
    </vehicle>
    <vehicle id="sedan_right2C3.8" type="sedan" depart="95.00">
        <route edges="right2C3 C3C2 C2D2 D2C2 C2C3 C3right2"/>
    </vehicle>
    <vehicle id="sedan_right1B3.8" type="sedan" depart="96.00">
        <route edges="right1B3 B3A3 A3right0"/>
    </vehicle>
    <vehicle id="sedan_top3D3.8" type="sedan" depart="96.00">
        <route edges="top3D3 D3C3 C3right2"/>
    </vehicle>
    <vehicle id="sedan_bottom1A1.10" type="sedan" depart="98.00">
        <route edges="bottom1A1 A1B1 B1B0 B0left1"/>
    </vehicle>
    <vehicle id="sedan_bottom3A3.6" type="sedan" depart="98.00">
        <route edges="bottom3A3 A3right0"/>
    </vehicle>
    <vehicle id="sedan_bottom0A0.6" type="sedan" depart="100.00">
        <route edges="bottom0A0 A0B0 B0left1"/>
    </vehicle>
    <vehicle id="sedan_bottom2A2.12" type="sedan" depart="100.00">
        <route edges="bottom2A2 A2bottom2"/>
    </vehicle>
    <vehicle id="sedan_top1D1.3" type="sedan" depart="100.00">
        <route edges="top1D1 D1D0 D0left3"/>
    </vehicle>
    <vehicle id="sedan_left1B0.7" type="sedan" depart="103.00">
        <route edges="left1B0 B0B1 B1B2 B2C2 C2D2 D2D3 D3right3"/>
    </vehicle>
    <vehicle id="sedan_top1D1.4" type="sedan" depart="103.00">
        <route edges="top1D1 D1D0 D0top0"/>
    </vehicle>
    <vehicle id="sedan_top1D1.5" type="sedan" depart="106.00">
        <route edges="top1D1 D1D2 D2C2 C2B2 B2A2 A2bottom2"/>
    </vehicle>
    <vehicle id="sedan_right0A3.5" type="sedan" depart="107.00">
        <route edges="right0A3 A3A2 A2bottom2"/>
    </vehicle>
    <vehicle id="sedan_top0D0.3" type="sedan" depart="107.00">
        <route edges="top0D0 D0C0 C0B0 B0B1 B1C1 C1D1 D1top1"/>
    </vehicle>
    <vehicle id="sedan_right1B3.9" type="sedan" depart="108.00">
        <route edges="right1B3 B3B2 B2B1 B1B0 B0C0 C0D0 D0top0"/>
    </vehicle>
    <vehicle id="sedan_right0A3.6" type="sedan" depart="109.00">
        <route edges="right0A3 A3A2 A2A1 A1A0 A0left0"/>
    </vehicle>
    <vehicle id="sedan_top0D0.4" type="sedan" depart="109.00">
        <route edges="top0D0 D0D1 D1C1 C1B1 B1A1 A1bottom1"/>
    </vehicle>
    <vehicle id="sedan_bottom0A0.7" type="sedan" depart="110.00">
        <route edges="bottom0A0 A0B0 B0C0 C0D0 D0top0"/>
    </vehicle>
    <vehicle id="sedan_left1B0.8" type="sedan" depart="111.00">
        <route edges="left1B0 B0B1 B1C1 C1C0 C0B0 B0left1"/>
    </vehicle>
    <vehicle id="sedan_left2C0.5" type="sedan" depart="114.00">
        <route edges="left2C0 C0C1 C1D1 D1D0 D0top0"/>
    </vehicle>
    <vehicle id="sedan_top1D1.6" type="sedan" depart="114.00">
        <route edges="top1D1 D1C1 C1C0 C0left2"/>
    </vehicle>
    <vehicle id="sedan_right0A3.7" type="sedan" depart="115.00">
        <route edges="right0A3 A3A2 A2A1 A1A0 A0left0"/>
    </vehicle>
    <vehicle id="sedan_right2C3.9" type="sedan" depart="115.00">
        <route edges="right2C3 C3C2 C2C1 C1C0 C0D0 D0D1 D1D2 D2D3 D3C3 C3B3 B3A3 A3right0"/>
    </vehicle>
    <vehicle id="sedan_bottom1A1.11" type="sedan" depart="117.00">
        <route edges="bottom1A1 A1A0 A0left0"/>
    </vehicle>
    <vehicle id="sedan_bottom3A3.7" type="sedan" depart="117.00">
        <route edges="bottom3A3 A3B3 B3C3 C3C2 C2D2 D2top2"/>
    </vehicle>
    <vehicle id="sedan_top2D2.5" type="sedan" depart="118.00">
        <route edges="top2D2 D2C2 C2C3 C3D3 D3top3"/>
    </vehicle>
    <vehicle id="sedan_left1B0.9" type="sedan" depart="120.00">
        <route edges="left1B0 B0B1 B1B2 B2B3 B3right1"/>
    </vehicle>
    <vehicle id="sedan_right3D3.7" type="sedan" depart="121.00">
        <route edges="right3D3 D3C3 C3right2"/>
    </vehicle>
    <vehicle id="sedan_top3D3.9" type="sedan" depart="121.00">
        <route edges="top3D3 D3C3 C3C2 C2B2 B2A2 A2bottom2"/>
    </vehicle>
    <vehicle id="sedan_right2C3.10" type="sedan" depart="122.00">
        <route edges="right2C3 C3C2 C2C1 C1D1 D1D0 D0left3"/>
    </vehicle>
    <vehicle id="sedan_bottom2A2.13" type="sedan" depart="123.00">
        <route edges="bottom2A2 A2A1 A1A0 A0left0"/>
    </vehicle>
    <vehicle id="sedan_left1B0.10" type="sedan" depart="126.00">
        <route edges="left1B0 B0B1 B1B2 B2C2 C2C3 C3B3 B3A3 A3right0"/>
    </vehicle>
    <vehicle id="sedan_top2D2.6" type="sedan" depart="126.00">
        <route edges="top2D2 D2C2 C2C3 C3right2"/>
    </vehicle>
    <vehicle id="sedan_right0A3.8" type="sedan" depart="127.00">
        <route edges="right0A3 A3A2 A2A1 A1A0 A0B0 B0B1 B1A1 A1bottom1"/>
    </vehicle>
    <vehicle id="sedan_bottom0A0.8" type="sedan" depart="128.00">
        <route edges="bottom0A0 A0B0 B0B1 B1B2 B2B3 B3A3 A3bottom3"/>
    </vehicle>
    <vehicle id="sedan_right1B3.10" type="sedan" depart="128.00">
        <route edges="right1B3 B3B2 B2B1 B1B0 B0left1"/>
    </vehicle>
    <vehicle id="sedan_bottom2A2.14" type="sedan" depart="129.00">
        <route edges="bottom2A2 A2A1 A1A0 A0bottom0"/>
    </vehicle>
    <vehicle id="sedan_bottom1A1.12" type="sedan" depart="130.00">
        <route edges="bottom1A1 A1B1 B1C1 C1D1 D1top1"/>
    </vehicle>
    <vehicle id="sedan_left3D0.4" type="sedan" depart="130.00">
        <route edges="left3D0 D0D1 D1C1 C1B1 B1A1 A1bottom1"/>
    </vehicle>
    <vehicle id="sedan_bottom0A0.9" type="sedan" depart="131.00">
        <route edges="bottom0A0 A0B0 B0left1"/>
    </vehicle>
    <vehicle id="sedan_top2D2.7" type="sedan" depart="132.00">
        <route edges="top2D2 D2D3 D3right3"/>
    </vehicle>
    <vehicle id="sedan_bottom1A1.13" type="sedan" depart="133.00">
        <route edges="bottom1A1 A1B1 B1C1 C1D1 D1top1"/>
    </vehicle>
    <vehicle id="sedan_top2D2.8" type="sedan" depart="134.00">
        <route edges="top2D2 D2D3 D3right3"/>
    </vehicle>
    <vehicle id="sedan_left3D0.5" type="sedan" depart="135.00">
        <route edges="left3D0 D0C0 C0B0 B0A0 A0bottom0"/>
    </vehicle>
    <vehicle id="sedan_bottom0A0.10" type="sedan" depart="137.00">
        <route edges="bottom0A0 A0B0 B0C0 C0D0 D0top0"/>
    </vehicle>
    <vehicle id="sedan_left3D0.6" type="sedan" depart="137.00">
        <route edges="left3D0 D0D1 D1D2 D2top2"/>
    </vehicle>
    <vehicle id="sedan_left1B0.11" type="sedan" depart="138.00">
        <route edges="left1B0 B0left1"/>
    </vehicle>
    <vehicle id="sedan_left2C0.6" type="sedan" depart="138.00">
        <route edges="left2C0 C0C1 C1C2 C2D2 D2top2"/>
    </vehicle>
    <vehicle id="sedan_top2D2.9" type="sedan" depart="138.00">
        <route edges="top2D2 D2D3 D3top3"/>
    </vehicle>
    <vehicle id="sedan_bottom2A2.15" type="sedan" depart="139.00">
        <route edges="bottom2A2 A2B2 B2C2 C2D2 D2top2"/>
    </vehicle>
    <vehicle id="sedan_right0A3.9" type="sedan" depart="139.00">
        <route edges="right0A3 A3bottom3"/>
    </vehicle>
    <vehicle id="sedan_right0A3.10" type="sedan" depart="140.00">
        <route edges="right0A3 A3A2 A2A1 A1B1 B1C1 C1D1 D1top1"/>
    </vehicle>
    <vehicle id="sedan_bottom3A3.8" type="sedan" depart="142.00">
        <route edges="bottom3A3 A3B3 B3right1"/>
    </vehicle>
    <vehicle id="sedan_top3D3.10" type="sedan" depart="143.00">
        <route edges="top3D3 D3right3"/>
    </vehicle>
    <vehicle id="sedan_left0A0.10" type="sedan" depart="145.00">
        <route edges="left0A0 A0A1 A1bottom1"/>
    </vehicle>
    <vehicle id="sedan_right3D3.8" type="sedan" depart="146.00">
        <route edges="right3D3 D3C3 C3B3 B3A3 A3bottom3"/>
    </vehicle>
    <vehicle id="sedan_bottom3A3.9" type="sedan" depart="148.00">
        <route edges="bottom3A3 A3B3 B3B2 B2B1 B1B2 B2C2 C2C1 C1C0 C0left2"/>
    </vehicle>
    <vehicle id="sedan_top1D1.7" type="sedan" depart="148.00">
        <route edges="top1D1 D1C1 C1B1 B1B0 B0left1"/>
    </vehicle>
    <vehicle id="sedan_left0A0.11" type="sedan" depart="150.00">
        <route edges="left0A0 A0B0 B0C0 C0D0 D0top0"/>
    </vehicle>
    <vehicle id="sedan_right0A3.11" type="sedan" depart="150.00">
        <route edges="right0A3 A3right0"/>
    </vehicle>
    <vehicle id="sedan_left2C0.7" type="sedan" depart="154.00">
        <route edges="left2C0 C0D0 D0top0"/>
    </vehicle>
    <vehicle id="sedan_right0A3.12" type="sedan" depart="154.00">
        <route edges="right0A3 A3A2 A2A1 A1A0 A0left0"/>
    </vehicle>
    <vehicle id="sedan_bottom2A2.16" type="sedan" depart="155.00">
        <route edges="bottom2A2 A2B2 B2B3 B3right1"/>
    </vehicle>
    <vehicle id="sedan_right2C3.11" type="sedan" depart="155.00">
        <route edges="right2C3 C3C2 C2C1 C1C0 C0C1 C1C2 C2B2 B2A2 A2A1 A1B1 B1B0 B0left1"/>
    </vehicle>
    <vehicle id="sedan_left0A0.12" type="sedan" depart="156.00">
        <route edges="left0A0 A0A1 A1A2 A2bottom2"/>
    </vehicle>
    <vehicle id="sedan_top0D0.5" type="sedan" depart="157.00">
        <route edges="top0D0 D0C0 C0B0 B0B1 B1A1 A1A2 A2A3 A3bottom3"/>
    </vehicle>
    <vehicle id="sedan_top2D2.10" type="sedan" depart="157.00">
        <route edges="top2D2 D2D1 D1D0 D0left3"/>
    </vehicle>
    <vehicle id="sedan_bottom2A2.17" type="sedan" depart="159.00">
        <route edges="bottom2A2 A2B2 B2C2 C2B2 B2B3 B3right1"/>
    </vehicle>
    <vehicle id="sedan_left1B0.12" type="sedan" depart="161.00">
        <route edges="left1B0 B0C0 C0D0 D0top0"/>
    </vehicle>
    <vehicle id="sedan_right0A3.13" type="sedan" depart="163.00">
        <route edges="right0A3 A3A2 A2A1 A1A0 A0left0"/>
    </vehicle>
    <vehicle id="sedan_right1B3.11" type="sedan" depart="163.00">
        <route edges="right1B3 B3B2 B2A2 A2A1 A1bottom1"/>
    </vehicle>
    <vehicle id="sedan_left2C0.8" type="sedan" depart="165.00">
        <route edges="left2C0 C0D0 D0D1 D1D2 D2top2"/>
    </vehicle>
    <vehicle id="sedan_top0D0.6" type="sedan" depart="166.00">
        <route edges="top0D0 D0C0 C0left2"/>
    </vehicle>
    <vehicle id="sedan_bottom2A2.18" type="sedan" depart="167.00">
        <route edges="bottom2A2 A2A3 A3right0"/>
    </vehicle>
    <vehicle id="sedan_right3D3.9" type="sedan" depart="169.00">
        <route edges="right3D3 D3D2 D2D1 D1D0 D0C0 C0left2"/>
    </vehicle>
    <vehicle id="sedan_top1D1.8" type="sedan" depart="170.00">
        <route edges="top1D1 D1C1 C1C0 C0left2"/>
    </vehicle>
    <vehicle id="sedan_top0D0.7" type="sedan" depart="171.00">
        <route edges="top0D0 D0C0 C0B0 B0A0 A0left0"/>
    </vehicle>
    <vehicle id="sedan_top1D1.9" type="sedan" depart="171.00">
        <route edges="top1D1 D1C1 C1B1 B1A1 A1bottom1"/>
    </vehicle>
    <vehicle id="sedan_top1D1.10" type="sedan" depart="173.00">
        <route edges="top1D1 D1C1 C1D1 D1top1"/>
    </vehicle>
    <vehicle id="sedan_left0A0.13" type="sedan" depart="174.00">
        <route edges="left0A0 A0B0 B0left1"/>
    </vehicle>
    <vehicle id="sedan_right0A3.14" type="sedan" depart="174.00">
        <route edges="right0A3 A3A2 A2A1 A1A0 A0left0"/>
    </vehicle>
    <vehicle id="sedan_bottom0A0.11" type="sedan" depart="175.00">
        <route edges="bottom0A0 A0B0 B0left1"/>
    </vehicle>
    <vehicle id="sedan_left1B0.13" type="sedan" depart="175.00">
        <route edges="left1B0 B0B1 B1B2 B2B3 B3A3 A3A2 A2A1 A1B1 B1C1 C1D1 D1D2 D2top2"/>
    </vehicle>
    <vehicle id="sedan_bottom3A3.10" type="sedan" depart="176.00">
        <route edges="bottom3A3 A3B3 B3B2 B2B1 B1B2 B2B3 B3right1"/>
    </vehicle>
    <vehicle id="sedan_top1D1.11" type="sedan" depart="176.00">
        <route edges="top1D1 D1D0 D0left3"/>
    </vehicle>
    <vehicle id="sedan_right0A3.15" type="sedan" depart="177.00">
        <route edges="right0A3 A3A2 A2A1 A1B1 B1B2 B2B3 B3C3 C3B3 B3A3 A3bottom3"/>
    </vehicle>
    <vehicle id="sedan_bottom2A2.19" type="sedan" depart="179.00">
        <route edges="bottom2A2 A2B2 B2C2 C2D2 D2top2"/>
    </vehicle>
    <vehicle id="sedan_left2C0.9" type="sedan" depart="179.00">
        <route edges="left2C0 C0D0 D0C0 C0left2"/>
    </vehicle>
    <vehicle id="sedan_left2C0.10" type="sedan" depart="180.00">
        <route edges="left2C0 C0C1 C1D1 D1top1"/>
    </vehicle>
    <vehicle id="sedan_left3D0.7" type="sedan" depart="181.00">
        <route edges="left3D0 D0top0"/>
    </vehicle>
    <vehicle id="sedan_right0A3.16" type="sedan" depart="181.00">
        <route edges="right0A3 A3A2 A2A1 A1B1 B1C1 C1D1 D1top1"/>
    </vehicle>
    <vehicle id="sedan_bottom0A0.12" type="sedan" depart="183.00">
        <route edges="bottom0A0 A0B0 B0C0 C0D0 D0left3"/>
    </vehicle>
    <vehicle id="sedan_bottom2A2.20" type="sedan" depart="183.00">
        <route edges="bottom2A2 A2B2 B2C2 C2D2 D2D1 D1D0 D0C0 C0left2"/>
    </vehicle>
    <vehicle id="sedan_left1B0.14" type="sedan" depart="183.00">
        <route edges="left1B0 B0A0 A0left0"/>
    </vehicle>
    <vehicle id="sedan_left3D0.8" type="sedan" depart="185.00">
        <route edges="left3D0 D0D1 D1C1 C1B1 B1A1 A1B1 B1C1 C1C0 C0left2"/>
    </vehicle>
    <vehicle id="sedan_bottom3A3.11" type="sedan" depart="186.00">
        <route edges="bottom3A3 A3B3 B3right1"/>
    </vehicle>
    <vehicle id="sedan_top1D1.12" type="sedan" depart="187.00">
        <route edges="top1D1 D1D2 D2C2 C2B2 B2B3 B3A3 A3bottom3"/>
    </vehicle>
    <vehicle id="sedan_left0A0.14" type="sedan" depart="189.00">
        <route edges="left0A0 A0A1 A1bottom1"/>
    </vehicle>
    <vehicle id="sedan_top3D3.11" type="sedan" depart="189.00">
        <route edges="top3D3 D3right3"/>
    </vehicle>
    <vehicle id="sedan_bottom1A1.14" type="sedan" depart="192.00">
        <route edges="bottom1A1 A1B1 B1C1 C1D1 D1D2 D2C2 C2B2 B2A2 A2bottom2"/>
    </vehicle>
    <vehicle id="sedan_right2C3.12" type="sedan" depart="192.00">
        <route edges="right2C3 C3C2 C2C1 C1C0 C0D0 D0C0 C0B0 B0A0 A0left0"/>
    </vehicle>
    <vehicle id="sedan_bottom0A0.13" type="sedan" depart="196.00">
        <route edges="bottom0A0 A0A1 A1A2 A2bottom2"/>
    </vehicle>
    <vehicle id="sedan_left1B0.15" type="sedan" depart="196.00">
        <route edges="left1B0 B0B1 B1B2 B2B3 B3right1"/>
    </vehicle>
    <vehicle id="sedan_bottom2A2.21" type="sedan" depart="197.00">
        <route edges="bottom2A2 A2B2 B2B1 B1B0 B0left1"/>
    </vehicle>
    <vehicle id="sedan_right1B3.12" type="sedan" depart="199.00">
        <route edges="right1B3 B3B2 B2B1 B1C1 C1C2 C2B2 B2B3 B3right1"/>
    </vehicle>
    <vehicle id="sedan_right3D3.10" type="sedan" depart="199.00">
        <route edges="right3D3 D3D2 D2D1 D1D0 D0top0"/>
    </vehicle>
    <vehicle id="sedan_top2D2.11" type="sedan" depart="200.00">