<?xml version="1.0" encoding="UTF-8"?>

<!-- generated on 2026-04-03T19:27:20.121166+08:00 by Eclipse SUMO jtrrouter 1.25.0
<jtrrouterConfiguration xmlns:xsi="http://www.w3.org/2001/XMLSchema-instance" xsi:noNamespaceSchemaLocation="http://sumo.dlr.de/xsd/jtrrouterConfiguration.xsd">

    <input>
        <net-file value="network/sim.net.xml"/>
        <route-files value="flows/suv.flow.xml"/>
        <turn-ratio-files value="turn.ratio.xml"/>
    </input>

    <output>
        <output-file value="routes/suv.rou.xml"/>
    </output>

    <processing>
        <sink-edges value="A0bottom0,A1bottom1,A2bottom2,A3bottom3,D0top0,D1top1,D2top2,D3top3,A0left0,B0left1,C0left2,D0left3,A3right0,B3right1,C3right2,D3right3"/>
    </processing>

    <time>
        <begin value="0"/>
        <end value="3600"/>
    </time>

    <random_number>
        <seed value="1"/>
    </random_number>

</jtrrouterConfiguration>
-->

<routes xmlns:xsi="http://www.w3.org/2001/XMLSchema-instance" xsi:noNamespaceSchemaLocation="http://sumo.dlr.de/xsd/routes_file.xsd">
    <vType id="suv" length="5.00" speedFactor="normc(0.95,0.10,0.20,2.00)" vClass="passenger" width="2.00" height="1.80" color="77,77,153" accel="2.2" decel="4.0" sigma="0.5"/>
    <vehicle id="suv_bottom1A1.0" type="suv" depart="3.00">
        <route edges="bottom1A1 A1A0 A0left0"/>
    </vehicle>
    <vehicle id="suv_bottom0A0.0" type="suv" depart="4.00">
        <route edges="bottom0A0 A0B0 B0left1"/>
    </vehicle>
    <vehicle id="suv_left0A0.0" type="suv" depart="4.00">
        <route edges="left0A0 A0B0 B0B1 B1C1 C1D1 D1D2 D2D3 D3right3"/>
    </vehicle>
    <vehicle id="suv_right3D3.0" type="suv" depart="4.00">
        <route edges="right3D3 D3D2 D2D1 D1top1"/>
    </vehicle>
    <vehicle id="suv_bottom2A2.0" type="suv" depart="5.00">
        <route edges="bottom2A2 A2B2 B2C2 C2B2 B2B3 B3A3 A3bottom3"/>
    </vehicle>
    <vehicle id="suv_right1B3.0" type="suv" depart="7.00">
        <route edges="right1B3 B3right1"/>
    </vehicle>
    <vehicle id="suv_bottom1A1.1" type="suv" depart="12.00">
        <route edges="bottom1A1 A1B1 B1C1 C1D1 D1top1"/>
    </vehicle>
    <vehicle id="suv_bottom2A2.1" type="suv" depart="13.00">
        <route edges="bottom2A2 A2B2 B2B1 B1B0 B0left1"/>
    </vehicle>
    <vehicle id="suv_top3D3.0" type="suv" depart="15.00">
        <route edges="top3D3 D3C3 C3B3 B3B2 B2B1 B1B0 B0C0 C0left2"/>
    </vehicle>
    <vehicle id="suv_right2C3.0" type="suv" depart="16.00">
        <route edges="right2C3 C3C2 C2D2 D2top2"/>
    </vehicle>
    <vehicle id="suv_right1B3.1" type="suv" depart="18.00">
        <route edges="right1B3 B3B2 B2C2 C2C1 C1D1 D1top1"/>
    </vehicle>
    <vehicle id="suv_right0A3.0" type="suv" depart="20.00">
        <route edges="right0A3 A3B3 B3C3 C3D3 D3top3"/>
    </vehicle>
    <vehicle id="suv_right1B3.2" type="suv" depart="21.00">
        <route edges="right1B3 B3B2 B2B1 B1C1 C1D1 D1D0 D0left3"/>
    </vehicle>
    <vehicle id="suv_bottom2A2.2" type="suv" depart="23.00">
        <route edges="bottom2A2 A2B2 B2C2 C2C3 C3D3 D3top3"/>
    </vehicle>
    <vehicle id="suv_left2C0.0" type="suv" depart="25.00">
        <route edges="left2C0 C0C1 C1C2 C2C3 C3C2 C2C1 C1B1 B1B2 B2B3 B3right1"/>
    </vehicle>
    <vehicle id="suv_bottom0A0.1" type="suv" depart="28.00">
        <route edges="bottom0A0 A0bottom0"/>
    </vehicle>
    <vehicle id="suv_bottom2A2.3" type="suv" depart="31.00">
        <route edges="bottom2A2 A2A3 A3right0"/>
    </vehicle>
    <vehicle id="suv_bottom2A2.4" type="suv" depart="32.00">
        <route edges="bottom2A2 A2B2 B2B1 B1A1 A1bottom1"/>
    </vehicle>
    <vehicle id="suv_right3D3.1" type="suv" depart="32.00">
        <route edges="right3D3 D3D2 D2D1 D1D0 D0top0"/>
    </vehicle>
    <vehicle id="suv_bottom3A3.0" type="suv" depart="33.00">
        <route edges="bottom3A3 A3A2 A2A1 A1A2 A2A3 A3right0"/>
    </vehicle>
    <vehicle id="suv_top2D2.0" type="suv" depart="36.00">
        <route edges="top2D2 D2C2 C2C1 C1D1 D1top1"/>
    </vehicle>
    <vehicle id="suv_bottom2A2.5" type="suv" depart="38.00">
        <route edges="bottom2A2 A2B2 B2B3 B3right1"/>
    </vehicle>
    <vehicle id="suv_right3D3.2" type="suv" depart="38.00">
        <route edges="right3D3 D3C3 C3B3 B3A3 A3bottom3"/>
    </vehicle>
    <vehicle id="suv_left0A0.1" type="suv" depart="39.00">
        <route edges="left0A0 A0bottom0"/>
    </vehicle>
    <vehicle id="suv_bottom1A1.2" type="suv" depart="40.00">
        <route edges="bottom1A1 A1B1 B1C1 C1D1 D1D0 D0C0 C0B0 B0A0 A0bottom0"/>
    </vehicle>
    <vehicle id="suv_top2D2.1" type="suv" depart="40.00">
        <route edges="top2D2 D2C2 C2D2 D2top2"/>
    </vehicle>
    <vehicle id="suv_bottom1A1.3" type="suv" depart="42.00">
        <route edges="bottom1A1 A1bottom1"/>
    </vehicle>
    <vehicle id="suv_right3D3.3" type="suv" depart="42.00">
        <route edges="right3D3 D3top3"/>
    </vehicle>
    <vehicle id="suv_right0A3.1" type="suv" depart="43.00">
        <route edges="right0A3 A3bottom3"/>
    </vehicle>
    <vehicle id="suv_bottom1A1.4" type="suv" depart="44.00">
        <route edges="bottom1A1 A1A0 A0left0"/>
    </vehicle>
    <vehicle id="suv_left0A0.2" type="suv" depart="44.00">
        <route edges="left0A0 A0B0 B0C0 C0D0 D0left3"/>
    </vehicle>
    <vehicle id="suv_left1B0.0" type="suv" depart="50.00">
        <route edges="left1B0 B0B1 B1B2 B2B1 B1A1 A1bottom1"/>
    </vehicle>
    <vehicle id="suv_right2C3.1" type="suv" depart="50.00">
        <route edges="right2C3 C3C2 C2C1 C1D1 D1D2 D2D3 D3top3"/>
    </vehicle>
    <vehicle id="suv_top1D1.0" type="suv" depart="51.00">
        <route edges="top1D1 D1D0 D0top0"/>
    </vehicle>
    <vehicle id="suv_left0A0.3" type="suv" depart="52.00">
        <route edges="left0A0 A0A1 A1B1 B1C1 C1C0 C0D0 D0top0"/>
    </vehicle>
    <vehicle id="suv_bottom0A0.2" type="suv" depart="54.00">
        <route edges="bottom0A0 A0B0 B0left1"/>
    </vehicle>
    <vehicle id="suv_top3D3.1" type="suv" depart="54.00">
        <route edges="top3D3 D3C3 C3D3 D3top3"/>
    </vehicle>
    <vehicle id="suv_top0D0.0" type="suv" depart="56.00">
        <route edges="top0D0 D0C0 C0B0 B0B1 B1C1 C1C0 C0D0 D0top0"/>
    </vehicle>
    <vehicle id="suv_bottom2A2.6" type="suv" depart="57.00">
        <route edges="bottom2A2 A2B2 B2C2 C2C1 C1C0 C0D0 D0left3"/>
    </vehicle>
    <vehicle id="suv_right1B3.3" type="suv" depart="57.00">
        <route edges="right1B3 B3right1"/>
    </vehicle>
    <vehicle id="suv_top3D3.2" type="suv" depart="58.00">
        <route edges="top3D3 D3D2 D2D1 D1top1"/>
    </vehicle>
    <vehicle id="suv_right1B3.4" type="suv" depart="64.00">
        <route edges="right1B3 B3B2 B2B1 B1B0 B0A0 A0bottom0"/>
    </vehicle>
    <vehicle id="suv_bottom1A1.5" type="suv" depart="66.00">
        <route edges="bottom1A1 A1A2 A2A3 A3B3 B3B2 B2B1 B1B0 B0A0 A0left0"/>
    </vehicle>
    <vehicle id="suv_top2D2.2" type="suv" depart="67.00">
        <route edges="top2D2 D2D3 D3C3 C3B3 B3A3 A3bottom3"/>
    </vehicle>
    <vehicle id="suv_bottom3A3.1" type="suv" depart="70.00">
        <route edges="bottom3A3 A3right0"/>
    </vehicle>
    <vehicle id="suv_top1D1.1" type="suv" depart="71.00">
        <route edges="top1D1 D1D2 D2C2 C2C3 C3right2"/>
    </vehicle>
    <vehicle id="suv_bottom2A2.7" type="suv" depart="72.00">
        <route edges="bottom2A2 A2B2 B2B3 B3right1"/>
    </vehicle>
    <vehicle id="suv_top3D3.3" type="suv" depart="73.00">
        <route edges="top3D3 D3right3"/>
    </vehicle>
    <vehicle id="suv_left0A0.4" type="suv" depart="74.00">
        <route edges="left0A0 A0A1 A1A2 A2bottom2"/>
    </vehicle>
    <vehicle id="suv_bottom0A0.3" type="suv" depart="76.00">
        <route edges="bottom0A0 A0bottom0"/>
    </vehicle>
    <vehicle id="suv_left1B0.1" type="suv" depart="76.00">
        <route edges="left1B0 B0B1 B1C1 C1D1 D1D2 D2top2"/>
    </vehicle>
    <vehicle id="suv_bottom0A0.4" type="suv" depart="77.00">
        <route edges="bottom0A0 A0B0 B0left1"/>
    </vehicle>
    <vehicle id="suv_left0A0.5" type="suv" depart="77.00">
        <route edges="left0A0 A0A1 A1A2 A2A1 A1bottom1"/>
    </vehicle>
    <vehicle id="suv_right1B3.5" type="suv" depart="77.00">
        <route edges="right1B3 B3C3 C3C2 C2C1 C1D1 D1top1"/>
    </vehicle>
    <vehicle id="suv_left3D0.0" type="suv" depart="78.00">
        <route edges="left3D0 D0D1 D1D2 D2top2"/>
    </vehicle>
    <vehicle id="suv_top0D0.1" type="suv" depart="78.00">
        <route edges="top0D0 D0C0 C0B0 B0A0 A0bottom0"/>
    </vehicle>
    <vehicle id="suv_bottom3A3.2" type="suv" depart="79.00">
        <route edges="bottom3A3 A3B3 B3C3 C3D3 D3top3"/>
    </vehicle>
    <vehicle id="suv_left0A0.6" type="suv" depart="82.00">
        <route edges="left0A0 A0bottom0"/>
    </vehicle>
    <vehicle id="suv_left0A0.7" type="suv" depart="86.00">
        <route edges="left0A0 A0A1 A1bottom1"/>
    </vehicle>
    <vehicle id="suv_top3D3.4" type="suv" depart="86.00">
        <route edges="top3D3 D3C3 C3right2"/>
    </vehicle>
    <vehicle id="suv_left3D0.1" type="suv" depart="88.00">
        <route edges="left3D0 D0D1 D1D2 D2D1 D1D0 D0top0"/>
    </vehicle>
    <vehicle id="suv_left3D0.2" type="suv" depart="89.00">
        <route edges="left3D0 D0top0"/>
    </vehicle>
    <vehicle id="suv_left1B0.2" type="suv" depart="90.00">
        <route edges="left1B0 B0B1 B1B2 B2A2 A2bottom2"/>
    </vehicle>
    <vehicle id="suv_bottom2A2.8" type="suv" depart="93.00">
        <route edges="bottom2A2 A2B2 B2C2 C2D2 D2top2"/>
    </vehicle>
    <vehicle id="suv_right0A3.2" type="suv" depart="93.00">
        <route edges="right0A3 A3B3 B3right1"/>
    </vehicle>
    <vehicle id="suv_bottom1A1.6" type="suv" depart="95.00">
        <route edges="bottom1A1 A1B1 B1C1 C1C2 C2C3 C3right2"/>
    </vehicle>
    <vehicle id="suv_right2C3.2" type="suv" depart="95.00">
        <route edges="right2C3 C3C2 C2B2 B2A2 A2bottom2"/>
    </vehicle>
    <vehicle id="suv_right1B3.6" type="suv" depart="96.00">
        <route edges="right1B3 B3B2 B2C2 C2D2 D2top2"/>
    </vehicle>
    <vehicle id="suv_top3D3.5" type="suv" depart="96.00">
        <route edges="top3D3 D3C3 C3B3 B3B2 B2B1 B1C1 C1C0 C0left2"/>
    </vehicle>
    <vehicle id="suv_bottom1A1.7" type="suv" depart="98.00">
        <route edges="bottom1A1 A1B1 B1C1 C1C0 C0C1 C1C2 C2C3 C3right2"/>
    </vehicle>
    <vehicle id="suv_bottom3A3.3" type="suv" depart="98.00">
        <route edges="bottom3A3 A3B3 B3right1"/>
    </vehicle>
    <vehicle id="suv_bottom0A0.5" type="suv" depart="100.00">
        <route edges="bottom0A0 A0left0"/>
    </vehicle>
    <vehicle id="suv_bottom2A2.9" type="suv" depart="100.00">
        <route edges="bottom2A2 A2B2 B2C2 C2D2 D2top2"/>
    </vehicle>
    <vehicle id="suv_top1D1.2" type="suv" depart="100.00">
        <route edges="top1D1 D1C1 C1B1 B1C1 C1D1 D1top1"/>
    </vehicle>
    <vehicle id="suv_left1B0.3" type="suv" depart="103.00">
        <route edges="left1B0 B0B1 B1B2 B2B3 B3A3 A3bottom3"/>
    </vehicle>
    <vehicle id="suv_top1D1.3" type="suv" depart="103.00">
        <route edges="top1D1 D1top1"/>
    </vehicle>
    <vehicle id="suv_top1D1.4" type="suv" depart="106.00">
        <route edges="top1D1 D1D0 D0left3"/>
    </vehicle>
    <vehicle id="suv_top0D0.2" type="suv" depart="107.00">
        <route edges="top0D0 D0D1 D1D2 D2D3 D3right3"/>
    </vehicle>
    <vehicle id="suv_right1B3.7" type="suv" depart="108.00">
        <route edges="right1B3 B3B2 B2B1 B1B0 B0A0 A0bottom0"/>
    </vehicle>
    <vehicle id="suv_right0A3.3" type="suv" depart="109.00">
        <route edges="right0A3 A3bottom3"/>
    </vehicle>
    <vehicle id="suv_top0D0.3" type="suv" depart="109.00">
        <route edges="top0D0 D0top0"/>
    </vehicle>
    <vehicle id="suv_left1B0.4" type="suv" depart="111.00">
        <route edges="left1B0 B0C0 C0D0 D0top0"/>
    </vehicle>
    <vehicle id="suv_right0A3.4" type="suv" depart="115.00">
        <route edges="right0A3 A3A2 A2bottom2"/>
    </vehicle>
    <vehicle id="suv_right2C3.3" type="suv" depart="115.00">
        <route edges="right2C3 C3C2 C2C1 C1D1 D1top1"/>
    </vehicle>
    <vehicle id="suv_top2D2.3" type="suv" depart="118.00">
        <route edges="top2D2 D2C2 C2B2 B2A2 A2bottom2"/>
    </vehicle>
    <vehicle id="suv_left1B0.5" type="suv" depart="120.00">
        <route edges="left1B0 B0B1 B1B2 B2B3 B3right1"/>
    </vehicle>
    <vehicle id="suv_right3D3.4" type="suv" depart="121.00">
        <route edges="right3D3 D3D2 D2C2 C2B2 B2A2 A2A3 A3B3 B3C3 C3C2 C2C1 C1C0 C0D0 D0top0"/>
    </vehicle>
    <vehicle id="suv_bottom2A2.10" type="suv" depart="123.00">
        <route edges="bottom2A2 A2B2 B2B1 B1A1 A1bottom1"/>
    </vehicle>
    <vehicle id="suv_left1B0.6" type="suv" depart="126.00">
        <route edges="left1B0 B0B1 B1B2 B2A2 A2B2 B2B1 B1A1 A1A2 A2A3 A3bottom3"/>
    </vehicle>
    <vehicle id="suv_top2D2.4" type="suv" depart="126.00">
        <route edges="top2D2 D2C2 C2B2 B2B1 B1A1 A1bottom1"/>
    </vehicle>
    <vehicle id="suv_right1B3.8" type="suv" depart="128.00">
        <route edges="right1B3 B3A3 A3bottom3"/>
    </vehicle>
    <vehicle id="suv_bottom2A2.11" type="suv" depart="129.00">
        <route edges="bottom2A2 A2B2 B2C2 C2D2 D2D1 D1C1 C1C2 C2C3 C3right2"/>
    </vehicle>
    <vehicle id="suv_bottom1A1.8" type="suv" depart="130.00">
        <route edges="bottom1A1 A1A0 A0left0"/>
    </vehicle>
    <vehicle id="suv_left3D0.3" type="suv" depart="130.00">
        <route edges="left3D0 D0top0"/>
    </vehicle>
    <vehicle id="suv_bottom1A1.9" type="suv" depart="133.00">
        <route edges="bottom1A1 A1B1 B1C1 C1C2 C2D2 D2top2"/>
    </vehicle>
    <vehicle id="suv_top2D2.5" type="suv" depart="134.00">
        <route edges="top2D2 D2D3 D3top3"/>
    </vehicle>
    <vehicle id="suv_left3D0.4" type="suv" depart="135.00">
        <route edges="left3D0 D0D1 D1top1"/>
    </vehicle>
    <vehicle id="suv_bottom0A0.6" type="suv" depart="137.00">
        <route edges="bottom0A0 A0B0 B0C0 C0C1 C1C2 C2D2 D2top2"/>
    </vehicle>
    <vehicle id="suv_left3D0.5" type="suv" depart="137.00">
        <route edges="left3D0 D0D1 D1top1"/>
    </vehicle>
    <vehicle id="suv_left1B0.7" type="suv" depart="138.00">
        <route edges="left1B0 B0B1 B1B2 B2B3 B3right1"/>
    </vehicle>
    <vehicle id="suv_left2C0.1" type="suv" depart="138.00">
        <route edges="left2C0 C0C1 C1C2 C2B2 B2B3 B3B2 B2C2 C2C1 C1C0 C0B0 B0C0 C0left2"/>
    </vehicle>
    <vehicle id="suv_bottom2A2.12" type="suv" depart="139.00">
        <route edges="bottom2A2 A2B2 B2A2 A2bottom2"/>
    </vehicle>
    <vehicle id="suv_bottom3A3.4" type="suv" depart="142.00">
        <route edges="bottom3A3 A3B3 B3B2 B2C2 C2D2 D2top2"/>
    </vehicle>
    <vehicle id="suv_top3D3.6" type="suv" depart="143.00">
        <route edges="top3D3 D3right3"/>
    </vehicle>
    <vehicle id="suv_right3D3.5" type="suv" depart="146.00">
        <route edges="right3D3 D3C3 C3right2"/>
    </vehicle>
    <vehicle id="suv_bottom3A3.5" type="suv" depart="148.00">
        <route edges="bottom3A3 A3right0"/>
    </vehicle>
    <vehicle id="suv_top1D1.5" type="suv" depart="148.00">
        <route edges="top1D1 D1C1 C1C0 C0left2"/>
    </vehicle>
    <vehicle id="suv_left0A0.8" type="suv" depart="150.00">
        <route edges="left0A0 A0B0 B0C0 C0D0 D0left3"/>
    </vehicle>
    <vehicle id="suv_left2C0.2" type="suv" depart="154.00">
        <route edges="left2C0 C0D0 D0top0"/>
    </vehicle>
    <vehicle id="suv_bottom2A2.13" type="suv" depart="155.00">
        <route edges="bottom2A2 A2A1 A1B1 B1C1 C1D1 D1top1"/>
    </vehicle>
    <vehicle id="suv_left0A0.9" type="suv" depart="156.00">
        <route edges="left0A0 A0A1 A1A2 A2A3 A3bottom3"/>
    </vehicle>
    <vehicle id="suv_top0D0.4" type="suv" depart="157.00">
        <route edges="top0D0 D0C0 C0left2"/>
    </vehicle>
    <vehicle id="suv_top2D2.6" type="suv" depart="157.00">
        <route edges="top2D2 D2C2 C2B2 B2B1 B1C1 C1D1 D1top1"/>
    </vehicle>
    <vehicle id="suv_bottom2A2.14" type="suv" depart="159.00">
        <route edges="bottom2A2 A2B2 B2C2 C2C3 C3D3 D3top3"/>
    </vehicle>
    <vehicle id="suv_left1B0.8" type="suv" depart="161.00">
        <route edges="left1B0 B0C0 C0D0 D0left3"/>
    </vehicle>
    <vehicle id="suv_right0A3.5" type="suv" depart="163.00">
        <route edges="right0A3 A3A2 A2A1 A1A0 A0B0 B0C0 C0C1 C1C2 C2C3 C3D3 D3top3"/>
    </vehicle>
    <vehicle id="suv_left2C0.3" type="suv" depart="165.00">
        <route edges="left2C0 C0C1 C1C2 C2D2 D2D3 D3C3 C3right2"/>
    </vehicle>
    <vehicle id="suv_top0D0.5" type="suv" depart="166.00">
        <route edges="top0D0 D0D1 D1top1"/>
    </vehicle>
    <vehicle id="suv_bottom2A2.15" type="suv" depart="167.00">
        <route edges="bottom2A2 A2A1 A1B1 B1C1 C1D1 D1top1"/>
    </vehicle>
    <vehicle id="suv_top1D1.6" type="suv" depart="170.00">
        <route edges="top1D1 D1C1 C1B1 B1A1 A1bottom1"/>
    </vehicle>
    <vehicle id="suv_top1D1.7" type="suv" depart="171.00">
        <route edges="top1D1 D1D0 D0left3"/>
    </vehicle>
    <vehicle id="suv_top1D1.8" type="suv" depart="173.00">
        <route edges="top1D1 D1D0 D0C0 C0B0 B0B1 B1B2 B2A2 A2bottom2"/>
    </vehicle>
    <vehicle id="suv_left0A0.10" type="suv" depart="174.00">
        <route edges="left0A0 A0A1 A1bottom1"/>
    </vehicle>
    <vehicle id="suv_right0A3.6" type="suv" depart="174.00">
        <route edges="right0A3 A3A2 A2bottom2"/>
    </vehicle>
    <vehicle id="suv_bottom0A0.7" type="suv" depart="175.00">
        <route edges="bottom0A0 A0B0 B0C0 C0D0 D0top0"/>
    </vehicle>
    <vehicle id="suv_left1B0.9" type="suv" depart="175.00">
        <route edges="left1B0 B0B1 B1B2 B2B3 B3C3 C3D3 D3right3"/>
    </vehicle>
    <vehicle id="suv_top1D1.9" type="suv" depart="176.00">
        <route edges="top1D1 D1D0 D0left3"/>
    </vehicle>
    <vehicle id="suv_right0A3.7" type="suv" depart="177.00">
        <route edges="right0A3 A3B3 B3B2 B2C2 C2C3 C3right2"/>
    </vehicle>
    <vehicle id="suv_left2C0.4" type="suv" depart="180.00">
        <route edges="left2C0 C0B0 B0A0 A0bottom0"/>
    </vehicle>
    <vehicle id="suv_left3D0.6" type="suv" depart="181.00">
        <route edges="left3D0 D0D1 D1D2 D2top2"/>
    </vehicle>
    <vehicle id="suv_right0A3.8" type="suv" depart="181.00">
        <route edges="right0A3 A3A2 A2B2 B2A2 A2A3 A3right0"/>
    </vehicle>
    <vehicle id="suv_bottom2A2.16" type="suv" depart="183.00">
        <route edges="bottom2A2 A2B2 B2B3 B3right1"/>
    </vehicle>
    <vehicle id="suv_left3D0.7" type="suv" depart="185.00">
        <route edges="left3D0 D0D1 D1C1 C1B1 B1B2 B2B3 B3right1"/>
    </vehicle>
    <vehicle id="suv_bottom3A3.6" type="suv" depart="186.00">
        <route edges="bottom3A3 A3B3 B3C3 C3C2 C2B2 B2A2 A2A1 A1A0 A0left0"/>
    </vehicle>
    <vehicle id="suv_top1D1.10" type="suv" depart="187.00">
        <route edges="top1D1 D1C1 C1B1 B1A1 A1bottom1"/>
    </vehicle>
    <vehicle id="suv_top3D3.7" type="suv" depart="189.00">
        <route edges="top3D3 D3C3 C3C2 C2C1 C1C0 C0D0 D0top0"/>
    </vehicle>
    <vehicle id="suv_bottom1A1.10" type="suv" depart="192.00">
        <route edges="bottom1A1 A1A0 A0B0 B0C0 C0D0 D0top0"/>
    </vehicle>
    <vehicle id="suv_bottom0A0.8" type="suv" depart="196.00">
        <route edges="bottom0A0 A0B0 B0left1"/>
    </vehicle>
    <vehicle id="suv_left1B0.10" type="suv" depart="196.00">
        <route edges="left1B0 B0B1 B1A1 A1bottom1"/>
    </vehicle>
    <vehicle id="suv_right1B3.9" type="suv" depart="199.00">
        <route edges="right1B3 B3A3 A3bottom3"/>
    </vehicle>
    <vehicle id="suv_left1B0.11" type="suv" depart="201.00">
        <route edges="left1B0 B0A0 A0left0"/>
    </vehicle>
    <vehicle id="suv_right2C3.4" type="suv" depart="201.00">
        <route edges="right2C3 C3D3 D3top3"/>
    </vehicle>
    <vehicle id="suv_top0D0.6" type="suv" depart="201.00">
        <route edges="top0D0 D0C0 C0B0 B0left1"/>
    </vehicle>
    <vehicle id="suv_top2D2.7" type="suv" depart="203.00">
        <route edges="top2D2 D2D3 D3C3 C3B3 B3A3 A3right0"/>
    </vehicle>
    <vehicle id="suv_top3D3.8" type="suv" depart="203.00">
        <route edges="top3D3 D3C3 C3B3 B3A3 A3bottom3"/>
    </vehicle>
    <vehicle id="suv_left1B0.12" type="suv" depart="207.00">
        <route edges="left1B0 B0A0 A0bottom0"/>
    </vehicle>
    <vehicle id="suv_top2D2.8" type="suv" depart="209.00">
        <route edges="top2D2 D2D1 D1D0 D0top0"/>
    </vehicle>
    <vehicle id="suv_bottom3A3.7" type="suv" depart="213.00">
        <route edges="bottom3A3 A3B3 B3right1"/>
    </vehicle>
    <vehicle id="suv_left3D0.8" type="suv" depart="215.00">
        <route edges="left3D0 D0D1 D1D2 D2D3 D3top3"/>
    </vehicle>
    <vehicle id="suv_right0A3.9" type="suv" depart="215.00">
        <route edges="right0A3 A3bottom3"/>
    </vehicle>
    <vehicle id="suv_top2D2.9" type="suv" depart="215.00">
        <route edges="top2D2 D2D1 D1D0 D0C0 C0D0 D0top0"/>
    </vehicle>
    <vehicle id="suv_left0A0.11" type="suv" depart="216.00">
        <route edges="left0A0 A0A1 A1A2 A2A3 A3right0"/>
    </vehicle>
    <vehicle id="suv_left3D0.9" type="suv" depart="217.00">
        <route edges="left3D0 D0top0"/>
    </vehicle>
    <vehicle id="suv_left0A0.12" type="suv" depart="218.00">
        <route edges="left0A0 A0B0 B0C0 C0D0 D0top0"/>
    </vehicle>
    <vehicle id="suv_top2D2.10" type="suv" depart="220.00">
        <route edges="top2D2 D2C2 C2C1 C1C0 C0left2"/>
    </vehicle>
    <vehicle id="suv_left1B0.13" type="suv" depart="221.00">
        <route edges="left1B0 B0A0 A0bottom0"/>
    </vehicle>
    <vehicle id="suv_right1B3.10" type="suv" depart="223.00">
        <route edges="right1B3 B3B2 B2B1 B1B0 B0A0 A0bottom0"/>
    </vehicle>
    <vehicle id="suv_bottom2A2.17" type="suv" depart="226.00">
        <route edges="bottom2A2 A2B2 B2B1 B1C1 C1D1 D1D0 D0C0 C0B0 B0A0 A0left0"/>
    </vehicle>
    <vehicle id="suv_right1B3.11" type="suv" depart="226.00">
        <route edges="right1B3 B3B2 B2B1 B1A1 A1bottom1"/>
    </vehicle>
    <vehicle id="suv_right2C3.5" type="suv" depart="226.00">
        <route edges="right2C3 C3D3 D3D2 D2C2 C2C1 C1D1 D1top1"/>
    </vehicle>
    <vehicle id="suv_top1D1.11" type="suv" depart="226.00">
        <route edges="top1D1 D1D0 D0C0 C0B0 B0left1"/>
    </vehicle>
    <vehicle id="suv_left1B0.14" type="suv" depart="229.00">
        <route edges="left1B0 B0C0 C0C1 C1C2 C2C3 C3right2"/>
    </vehicle>
    <vehicle id="suv_left1B0.15" type="suv" depart="230.00">
        <route edges="left1B0 B0B1 B1B2 B2A2 A2A3 A3B3 B3B2 B2B1 B1C1 C1D1 D1top1"/>
    </vehicle>
    <vehicle id="suv_bottom3A3.8" type="suv" depart="232.00">
        <route edges="bottom3A3 A3B3 B3C3 C3D3 D3top3"/>
    </vehicle>
    <vehicle id="suv_right0A3.10" type="suv" depart="233.00">
        <route edges="right0A3 A3B3 B3right1"/>
    </vehicle>
    <vehicle id="suv_right3D3.6" type="suv" depart="234.00">
        <route edges="right3D3 D3D2 D2D1 D1D0 D0top0"/>
    </vehicle>
    <vehicle id="suv_left3D0.10" type="suv" depart="237.00">
        <route edges="left3D0 D0D1 D1top1"/>
    </vehicle>
    <vehicle id="suv_bottom1A1.11" type="suv" depart="238.00">
        <route edges="bottom1A1 A1A2 A2A3 A3B3 B3C3 C3D3 D3D2 D2C2 C2B2 B2B1 B1B0 B0left1"/>
    </vehicle>
    <vehicle id="suv_bottom2A2.18" type="suv" depart="238.00">
        <route edges="bottom2A2 A2B2 B2C2 C2C1 C1B1 B1A1 A1A0 A0left0"/>
    </vehicle>
    <vehicle id="suv_top2D2.11" type="suv" depart="240.00">
        <route edges="top2D2 D2C2 C2C3 C3right2"/>
    </vehicle>
    <vehicle id="suv_top3D3.9" type="suv" depart="241.00">
        <route edges="top3D3 D3right3"/>
    </vehicle>
    <vehicle id="suv_top3D3.10" type="suv" depart="242.00">
        <route edges="top3D3 D3C3 C3B3 B3B2 B2A2 A2bottom2"/>
    </vehicle>
    <vehicle id="suv_top0D0.7" type="suv" depart="243.00">
        <route edges="top0D0 D0top0"/>
    </vehicle>
    <vehicle id="suv_bottom0A0.9" type="suv" depart="245.00">
        <route edges="bottom0A0 A0B0 B0left1"/>
    </vehicle>
    <vehicle id="suv_bottom3A3.9" type="suv" depart="245.00">
        <route edges="bottom3A3 A3B3 B3C3 C3C2 C2C1 C1D1 D1D2 D2C2 C2B2 B2A2 A2A1 A1A0 A0B0 B0left1"/>
    </vehicle>
    <vehicle id="suv_right2C3.6" type="suv" depart="245.00">
        <route edges="right2C3 C3C2 C2C1 C1C0 C0D0 D0top0"/>
    </vehicle>
    <vehicle id="suv_top3D3.11" type="suv" depart="246.00">
        <route edges="top3D3 D3C3 C3B3 B3right1"/>
    </vehicle>
    <vehicle id="suv_left0A0.13" type="suv" depart="247.00">
        <route edges="left0A0 A0A1 A1bottom1"/>
    </vehicle>
    <vehicle id="suv_right1B3.12" type="suv" depart="247.00">
        <route edges="right1B3 B3B2 B2A2 A2bottom2"/>
    </vehicle>
    <vehicle id="suv_left0A0.14" type="suv" depart="251.00">
        <route edges="left0A0 A0bottom0"/>
    </vehicle>
    <vehicle id="suv_top1D1.12" type="suv" depart="252.00">
        <route edges="top1D1 D1C1 C1C0 C0left2"/>
    </vehicle>
    <vehicle id="suv_bottom3A3.10" type="suv" depart="253.00">
        <route edges="bottom3A3 A3B3 B3B2 B2B1 B1C1 C1C0 C0left2"/>
    </vehicle>
    <vehicle id="suv_left1B0.16" type="suv" depart="253.00">
        <route edges="left1B0 B0B1 B1B2 B2A2 A2bottom2"/>
    </vehicle>
    <vehicle id="suv_left1B0.17" type="suv" depart="255.00">
        <route edges="left1B0 B0B1 B1B2 B2B3 B3A3 A3bottom3"/>
    </vehicle>
    <vehicle id="suv_bottom1A1.12" type="suv" depart="257.00">
        <route edges="bottom1A1 A1A0 A0bottom0"/>
    </vehicle>
    <vehicle id="suv_left3D0.11" type="suv" depart="259.00">
        <route edges="left3D0 D0left3"/>
    </vehicle>
    <vehicle id="suv_left3D0.12" type="suv" depart="260.00">
        <route edges="left3D0 D0top0"/>
    </vehicle>
    <vehicle id="suv_top2D2.12" type="suv" depart="260.00">
        <route edges="top2D2 D2C2 C2B2 B2A2 A2A3 A3right0"/>
    </vehicle>
    <vehicle id="suv_top1D1.13" type="suv" depart="262.00">
        <route edges="top1D1 D1C1 C1C0 C0left2"/>
    </vehicle>
    <vehicle id="suv_right3D3.7" type="suv" depart="263.00">
        <route edges="right3D3 D3D2 D2D1 D1C1 C1C0 C0D0 D0C0 C0B0 B0A0 A0left0"/>
    </vehicle>
    <vehicle id="suv_top2D2.13" type="suv" depart="269.00">
        <route edges="top2D2 D2C2 C2B2 B2A2 A2A1 A1bottom1"/>
    </vehicle>
    <vehicle id="suv_right2C3.7" type="suv" depart="270.00">
        <route edges="right2C3 C3C2 C2B2 B2A2 A2bottom2"/>
    </vehicle>
    <vehicle id="suv_top1D1.14" type="suv" depart="272.00">
        <route edges="top1D1 D1D2 D2C2 C2B2 B2A2 A2A1 A1A0 A0left0"/>
    </vehicle>
    <vehicle id="suv_bottom2A2.19" type="suv" depart="274.00">
        <route edges="bottom2A2 A2B2 B2C2 C2C1 C1C0 C0left2"/>
    </vehicle>
    <vehicle id="suv_right1B3.13" type="suv" depart="275.00">
        <route edges="right1B3 B3C3 C3C2 C2C1 C1C0 C0B0 B0A0 A0bottom0"/>
    </vehicle>
    <vehicle id="suv_right2C3.8" type="suv" depart="277.00">
        <route edges="right2C3 C3C2 C2C1 C1C0 C0left2"/>
    </vehicle>
    <vehicle id="suv_right1B3.14" type="suv" depart="279.00">
        <route edges="right1B3 B3C3 C3right2"/>
    </vehicle>
    <vehicle id="suv_left1B0.18" type="suv" depart="280.00">
        <route edges="left1B0 B0A0 A0bottom0"/>
    </vehicle>
    <vehicle id="suv_left2C0.5" type="suv" depart="280.00">
        <route edges="left2C0 C0C1 C1D1 D1top1"/>
    </vehicle>
    <vehicle id="suv_left3D0.13" type="suv" depart="280.00">
        <route edges="left3D0 D0D1 D1top1"/>
    </vehicle>
    <vehicle id="suv_top3D3.12" type="suv" depart="280.00">
        <route edges="top3D3 D3C3 C3C2 C2B2 B2A2 A2bottom2"/>
    </vehicle>
    <vehicle id="suv_right2C3.9" type="suv" depart="283.00">
        <route edges="right2C3 C3C2 C2D2 D2D1 D1C1 C1C0 C0B0 B0B1 B1B2 B2B3 B3right1"/>
    </vehicle>
    <vehicle id="suv_right3D3.8" type="suv" depart="283.00">
        <route edges="right3D3 D3D2 D2D1 D1top1"/>
    </vehicle>
    <vehicle id="suv_right1B3.15" type="suv" depart="286.00">
        <route edges="right1B3 B3C3 C3B3 B3A3 A3A2 A2bottom2"/>
    </vehicle>
    <vehicle id="suv_right1B3.16" type="suv" depart="287.00">
        <route edges="right1B3 B3B2 B2B1 B1B0 B0A0 A0bottom0"/>
    </vehicle>
    <vehicle id="suv_top0D0.8" type="suv" depart="288.00">
        <route edges="top0D0 D0C0 C0B0 B0A0 A0bottom0"/>
    </vehicle>
    <vehicle id="suv_top2D2.14" type="suv" depart="288.00">
        <route edges="top2D2 D2D1 D1C1 C1B1 B1B2 B2B3 B3C3 C3D3 D3top3"/>
    </vehicle>
    <vehicle id="suv_left1B0.19" type="suv" depart="292.00">
        <route edges="left1B0 B0A0 A0left0"/>
    </vehicle>
    <vehicle id="suv_bottom0A0.10" type="suv" depart="300.00">
        <route edges="bottom0A0 A0B0 B0C0 C0left2"/>
    </vehicle>
    <vehicle id="suv_left0A0.15" type="suv" depart="300.00">
        <route edges="left0A0 A0A1 A1bottom1"/>
    </vehicle>
    <vehicle id="suv_left1B0.20" type="suv" depart="300.00">
        <route edges="left1B0 B0B1 B1C1 C1C2 C2B2 B2A2 A2bottom2"/>
    </vehicle>
    <vehicle id="suv_left1B0.21" type="suv" depart="301.00">
        <route edges="left1B0 B0left1"/>
    </vehicle>
    <vehicle id="suv_right3D3.9" type="suv" depart="301.00">
        <route edges="right3D3 D3D2 D2D1 D1D0 D0C0 C0B0 B0A0 A0bottom0"/>
    </vehicle>
    <vehicle id="suv_top2D2.15" type="suv" depart="301.00">
        <route edges="top2D2 D2C2 C2B2 B2A2 A2A3 A3bottom3"/>
    </vehicle>
    <vehicle id="suv_left1B0.22" type="suv" depart="303.00">
        <route edges="left1B0 B0B1 B1B2 B2C2 C2D2 D2D1 D1D0 D0C0 C0B0 B0A0 A0left0"/>
    </vehicle>
    <vehicle id="suv_right0A3.11" type="suv" depart="309.00">
        <route edges="right0A3 A3B3 B3B2 B2A2 A2bottom2"/>
    </vehicle>
    <vehicle id="suv_right1B3.17" type="suv" depart="309.00">
        <route edges="right1B3 B3B2 B2B1 B1C1 C1C0 C0B0 B0left1"/>
    </vehicle>