<?xml version="1.0" encoding="UTF-8"?>

<!-- generated on 2026-04-03T19:27:20.431538+08:00 by Eclipse SUMO jtrrouter 1.25.0
<jtrrouterConfiguration xmlns:xsi="http://www.w3.org/2001/XMLSchema-instance" xsi:noNamespaceSchemaLocation="http://sumo.dlr.de/xsd/jtrrouterConfiguration.xsd">

    <input>
        <net-file value="network/sim.net.xml"/>
        <route-files value="flows/truck.flow.xml"/>
        <turn-ratio-files value="turn.ratio.xml"/>
    </input>

    <output>
        <output-file value="routes/truck.rou.xml"/>
    </output>

    <processing>
        <sink-edges value="A0bottom0,A1bottom1,A2bottom2,A3bottom3,D0top0,D1top1,D2top2,D3top3,A0left0,B0left1,C0left2,D0left3,A3right0,B3right1,C3right2,D3right3"/>
    </processing>

    <time>
        <begin value="0"/>
        <end value="3600"/>
    </time>

    <random_number>
        <seed value="1"/>
    </random_number>

</jtrrouterConfiguration>
-->

<routes xmlns:xsi="http://www.w3.org/2001/XMLSchema-instance" xsi:noNamespaceSchemaLocation="http://sumo.dlr.de/xsd/routes_file.xsd">
    <vType id="truck" length="8.00" speedFactor="normc(0.85,0.08,0.20,2.00)" vClass="truck" width="2.50" height="3.00" color="153,102,51" accel="1.3" decel="3.5" sigma="0.3"/>
    <vehicle id="truck_bottom1A1.0" type="truck" depart="3.00">
        <route edges="bottom1A1 A1A0 A0left0"/>
    </vehicle>
    <vehicle id="truck_bottom0A0.0" type="truck" depart="4.00">
        <route edges="bottom0A0 A0B0 B0left1"/>
    </vehicle>
    <vehicle id="truck_right3D3.0" type="truck" depart="4.00">
        <route edges="right3D3 D3D2 D2C2 C2C3 C3right2"/>
    </vehicle>
    <vehicle id="truck_bottom2A2.0" type="truck" depart="5.00">
        <route edges="bottom2A2 A2A1 A1A0 A0left0"/>
    </vehicle>
    <vehicle id="truck_right1B3.0" type="truck" depart="7.00">
        <route edges="right1B3 B3B2 B2B1 B1C1 C1D1 D1top1"/>
    </vehicle>
    <vehicle id="truck_right1B3.1" type="truck" depart="21.00">
        <route edges="right1B3 B3A3 A3right0"/>
    </vehicle>
    <vehicle id="truck_bottom2A2.1" type="truck" depart="31.00">
        <route edges="bottom2A2 A2A1 A1A0 A0left0"/>
    </vehicle>
    <vehicle id="truck_bottom3A3.0" type="truck" depart="33.00">
        <route edges="bottom3A3 A3right0"/>
    </vehicle>
    <vehicle id="truck_right3D3.1" type="truck" depart="38.00">
        <route edges="right3D3 D3D2 D2D1 D1D0 D0left3"/>
    </vehicle>
    <vehicle id="truck_left0A0.0" type="truck" depart="39.00">
        <route edges="left0A0 A0A1 A1A2 A2B2 B2B1 B1A1 A1bottom1"/>
    </vehicle>
    <vehicle id="truck_top2D2.0" type="truck" depart="40.00">
        <route edges="top2D2 D2C2 C2B2 B2A2 A2bottom2"/>
    </vehicle>
    <vehicle id="truck_top1D1.0" type="truck" depart="51.00">
        <route edges="top1D1 D1D0 D0top0"/>
    </vehicle>
    <vehicle id="truck_right1B3.2" type="truck" depart="57.00">
        <route edges="right1B3 B3B2 B2B1 B1C1 C1C0 C0left2"/>
    </vehicle>
    <vehicle id="truck_top3D3.0" type="truck" depart="73.00">
        <route edges="top3D3 D3D2 D2D1 D1D0 D0left3"/>
    </vehicle>
    <vehicle id="truck_left1B0.0" type="truck" depart="76.00">
        <route edges="left1B0 B0B1 B1B2 B2B3 B3right1"/>
    </vehicle>
    <vehicle id="truck_right1B3.3" type="truck" depart="77.00">
        <route edges="right1B3 B3B2 B2A2 A2bottom2"/>
    </vehicle>
    <vehicle id="truck_left3D0.0" type="truck" depart="78.00">
        <route edges="left3D0 D0top0"/>
    </vehicle>
    <vehicle id="truck_top0D0.0" type="truck" depart="78.00">
        <route edges="top0D0 D0left3"/>
    </vehicle>
    <vehicle id="truck_bottom3A3.1" type="truck" depart="79.00">
        <route edges="bottom3A3 A3B3 B3C3 C3D3 D3top3"/>
    </vehicle>
    <vehicle id="truck_left0A0.1" type="truck" depart="82.00">
        <route edges="left0A0 A0B0 B0C0 C0C1 C1C2 C2B2 B2B1 B1B0 B0left1"/>
    </vehicle>
    <vehicle id="truck_left0A0.2" type="truck" depart="86.00">
        <route edges="left0A0 A0bottom0"/>
    </vehicle>
    <vehicle id="truck_top3D3.1" type="truck" depart="86.00">
        <route edges="top3D3 D3C3 C3C2 C2D2 D2D1 D1C1 C1C2 C2C3 C3right2"/>
    </vehicle>
    <vehicle id="truck_left3D0.1" type="truck" depart="88.00">
        <route edges="left3D0 D0D1 D1top1"/>
    </vehicle>
    <vehicle id="truck_left3D0.2" type="truck" depart="89.00">
        <route edges="left3D0 D0C0 C0B0 B0B1 B1A1 A1bottom1"/>
    </vehicle>
    <vehicle id="truck_left1B0.1" type="truck" depart="90.00">
        <route edges="left1B0 B0B1 B1B2 B2C2 C2D2 D2top2"/>
    </vehicle>
    <vehicle id="truck_right0A3.0" type="truck" depart="93.00">
        <route edges="right0A3 A3A2 A2bottom2"/>
    </vehicle>
    <vehicle id="truck_bottom1A1.1" type="truck" depart="98.00">
        <route edges="bottom1A1 A1A0 A0bottom0"/>
    </vehicle>
    <vehicle id="truck_bottom2A2.2" type="truck" depart="100.00">
        <route edges="bottom2A2 A2B2 B2C2 C2D2 D2top2"/>
    </vehicle>
    <vehicle id="truck_top1D1.1" type="truck" depart="106.00">
        <route edges="top1D1 D1D0 D0left3"/>
    </vehicle>
    <vehicle id="truck_top0D0.1" type="truck" depart="107.00">
        <route edges="top0D0 D0C0 C0B0 B0A0 A0bottom0"/>
    </vehicle>
    <vehicle id="truck_right0A3.1" type="truck" depart="109.00">
        <route edges="right0A3 A3B3 B3C3 C3right2"/>
    </vehicle>
    <vehicle id="truck_top0D0.2" type="truck" depart="109.00">
        <route edges="top0D0 D0left3"/>
    </vehicle>
    <vehicle id="truck_right0A3.2" type="truck" depart="115.00">
        <route edges="right0A3 A3right0"/>
    </vehicle>
    <vehicle id="truck_right2C3.0" type="truck" depart="115.00">
        <route edges="right2C3 C3right2"/>
    </vehicle>
    <vehicle id="truck_left1B0.2" type="truck" depart="126.00">
        <route edges="left1B0 B0C0 C0C1 C1D1 D1top1"/>
    </vehicle>
    <vehicle id="truck_top2D2.1" type="truck" depart="126.00">
        <route edges="top2D2 D2C2 C2B2 B2A2 A2bottom2"/>
    </vehicle>
    <vehicle id="truck_bottom2A2.3" type="truck" depart="129.00">
        <route edges="bottom2A2 A2B2 B2B3 B3A3 A3bottom3"/>
    </vehicle>
    <vehicle id="truck_top2D2.2" type="truck" depart="134.00">
        <route edges="top2D2 D2C2 C2B2 B2B3 B3C3 C3D3 D3top3"/>
    </vehicle>
    <vehicle id="truck_left3D0.3" type="truck" depart="135.00">
        <route edges="left3D0 D0D1 D1top1"/>
    </vehicle>
    <vehicle id="truck_left1B0.3" type="truck" depart="138.00">
        <route edges="left1B0 B0B1 B1B2 B2B3 B3B2 B2B1 B1C1 C1D1 D1top1"/>
    </vehicle>
    <vehicle id="truck_left2C0.0" type="truck" depart="154.00">
        <route edges="left2C0 C0B0 B0B1 B1B2 B2A2 A2bottom2"/>
    </vehicle>
    <vehicle id="truck_bottom2A2.4" type="truck" depart="155.00">
        <route edges="bottom2A2 A2B2 B2C2 C2C1 C1B1 B1B0 B0C0 C0D0 D0left3"/>
    </vehicle>
    <vehicle id="truck_top0D0.3" type="truck" depart="157.00">
        <route edges="top0D0 D0left3"/>
    </vehicle>
    <vehicle id="truck_top2D2.3" type="truck" depart="157.00">
        <route edges="top2D2 D2C2 C2B2 B2B3 B3right1"/>
    </vehicle>
    <vehicle id="truck_left1B0.4" type="truck" depart="161.00">
        <route edges="left1B0 B0B1 B1C1 C1C2 C2C3 C3D3 D3D2 D2D1 D1C1 C1B1 B1A1 A1A2 A2A3 A3right0"/>
    </vehicle>
    <vehicle id="truck_right0A3.3" type="truck" depart="163.00">
        <route edges="right0A3 A3A2 A2bottom2"/>
    </vehicle>
    <vehicle id="truck_top0D0.4" type="truck" depart="166.00">
        <route edges="top0D0 D0left3"/>
    </vehicle>
    <vehicle id="truck_top1D1.2" type="truck" depart="171.00">
        <route edges="top1D1 D1C1 C1B1 B1B0 B0C0 C0left2"/>
    </vehicle>
    <vehicle id="truck_left0A0.3" type="truck" depart="174.00">
        <route edges="left0A0 A0bottom0"/>
    </vehicle>
    <vehicle id="truck_bottom0A0.1" type="truck" depart="175.00">
        <route edges="bottom0A0 A0A1 A1bottom1"/>
    </vehicle>
    <vehicle id="truck_right0A3.4" type="truck" depart="177.00">
        <route edges="right0A3 A3B3 B3C3 C3D3 D3top3"/>
    </vehicle>
    <vehicle id="truck_left2C0.1" type="truck" depart="180.00">
        <route edges="left2C0 C0D0 D0D1 D1C1 C1C2 C2C3 C3D3 D3top3"/>
    </vehicle>
    <vehicle id="truck_left3D0.4" type="truck" depart="181.00">
        <route edges="left3D0 D0top0"/>
    </vehicle>
    <vehicle id="truck_right0A3.5" type="truck" depart="181.00">
        <route edges="right0A3 A3A2 A2bottom2"/>
    </vehicle>
    <vehicle id="truck_top3D3.2" type="truck" depart="189.00">
        <route edges="top3D3 D3C3 C3right2"/>
    </vehicle>
    <vehicle id="truck_bottom0A0.2" type="truck" depart="196.00">
        <route edges="bottom0A0 A0A1 A1A2 A2A1 A1bottom1"/>
    </vehicle>
    <vehicle id="truck_top3D3.3" type="truck" depart="202.00">
        <route edges="top3D3 D3C3 C3B3 B3A3 A3bottom3"/>
    </vehicle>
    <vehicle id="truck_top3D3.4" type="truck" depart="212.00">
        <route edges="top3D3 D3top3"/>
    </vehicle>
    <vehicle id="truck_bottom1A1.2" type="truck" depart="213.00">
        <route edges="bottom1A1 A1B1 B1B2 B2C2 C2D2 D2C2 C2C3 C3D3 D3D2 D2top2"/>
    </vehicle>
    <vehicle id="truck_right3D3.2" type="truck" depart="215.00">
        <route edges="right3D3 D3D2 D2D1 D1D0 D0D1 D1C1 C1B1 B1B0 B0left1"/>
    </vehicle>
    <vehicle id="truck_right0A3.6" type="truck" depart="220.00">
        <route edges="right0A3 A3bottom3"/>
    </vehicle>
    <vehicle id="truck_top0D0.5" type="truck" depart="223.00">
        <route edges="top0D0 D0D1 D1D2 D2D3 D3C3 C3B3 B3A3 A3bottom3"/>
    </vehicle>
    <vehicle id="truck_top1D1.3" type="truck" depart="223.00">
        <route edges="top1D1 D1C1 C1B1 B1A1 A1A0 A0left0"/>
    </vehicle>
    <vehicle id="truck_right3D3.3" type="truck" depart="227.00">
        <route edges="right3D3 D3D2 D2top2"/>
    </vehicle>
    <vehicle id="truck_left3D0.5" type="truck" depart="240.00">
        <route edges="left3D0 D0D1 D1D2 D2D3 D3right3"/>
    </vehicle>
    <vehicle id="truck_top1D1.4" type="truck" depart="241.00">
        <route edges="top1D1 D1C1 C1B1 B1A1 A1B1 B1B0 B0A0 A0bottom0"/>
    </vehicle>
    <vehicle id="truck_bottom1A1.3" type="truck" depart="247.00">
        <route edges="bottom1A1 A1B1 B1C1 C1D1 D1top1"/>
    </vehicle>
    <vehicle id="truck_bottom3A3.2" type="truck" depart="254.00">
        <route edges="bottom3A3 A3A2 A2A1 A1A0 A0left0"/>
    </vehicle>
    <vehicle id="truck_left1B0.5" type="truck" depart="257.00">
        <route edges="left1B0 B0C0 C0left2"/>
    </vehicle>
    <vehicle id="truck_top0D0.6" type="truck" depart="257.00">
        <route edges="top0D0 D0C0 C0B0 B0A0 A0left0"/>
    </vehicle>
    <vehicle id="truck_top3D3.5" type="truck" depart="259.00">
        <route edges="top3D3 D3right3"/>
    </vehicle>
    <vehicle id="truck_left0A0.4" type="truck" depart="265.00">
        <route edges="left0A0 A0left0"/>
    </vehicle>
    <vehicle id="truck_top2D2.4" type="truck" depart="265.00">
        <route edges="top2D2 D2C2 C2B2 B2A2 A2bottom2"/>
    </vehicle>
    <vehicle id="truck_left3D0.6" type="truck" depart="286.00">
        <route edges="left3D0 D0D1 D1D2 D2C2 C2B2 B2A2 A2bottom2"/>
    </vehicle>
    <vehicle id="truck_right1B3.4" type="truck" depart="287.00">
        <route edges="right1B3 B3A3 A3right0"/>
    </vehicle>
    <vehicle id="truck_left1B0.6" type="truck" depart="290.00">
        <route edges="left1B0 B0B1 B1A1 A1bottom1"/>
    </vehicle>
    <vehicle id="truck_left0A0.5" type="truck" depart="293.00">
        <route edges="left0A0 A0A1 A1A2 A2A3 A3right0"/>
    </vehicle>
    <vehicle id="truck_top1D1.5" type="truck" depart="293.00">
        <route edges="top1D1 D1C1 C1C0 C0left2"/>
    </vehicle>
    <vehicle id="truck_top2D2.5" type="truck" depart="296.00">
        <route edges="top2D2 D2D3 D3right3"/>
    </vehicle>
    <vehicle id="truck_right3D3.4" type="truck" depart="297.00">
        <route edges="right3D3 D3C3 C3right2"/>
    </vehicle>
    <vehicle id="truck_right0A3.7" type="truck" depart="308.00">
        <route edges="right0A3 A3A2 A2A1 A1A0 A0B0 B0C0 C0left2"/>
    </vehicle>
    <vehicle id="truck_left0A0.6" type="truck" depart="313.00">
        <route edges="left0A0 A0bottom0"/>
    </vehicle>
    <vehicle id="truck_right3D3.5" type="truck" depart="318.00">
        <route edges="right3D3 D3right3"/>
    </vehicle>
    <vehicle id="truck_bottom2A2.5" type="truck" depart="322.00">
        <route edges="bottom2A2 A2A1 A1A0 A0left0"/>
    </vehicle>
    <vehicle id="truck_bottom1A1.4" type="truck" depart="328.00">
        <route edges="bottom1A1 A1B1 B1C1 C1D1 D1top1"/>
    </vehicle>
    <vehicle id="truck_left1B0.7" type="truck" depart="339.00">
        <route edges="left1B0 B0C0 C0B0 B0A0 A0left0"/>
    </vehicle>
    <vehicle id="truck_top1D1.6" type="truck" depart="341.00">
        <route edges="top1D1 D1D0 D0left3"/>
    </vehicle>
    <vehicle id="truck_bottom0A0.3" type="truck" depart="342.00">
        <route edges="bottom0A0 A0left0"/>
    </vehicle>
    <vehicle id="truck_top3D3.6" type="truck" depart="343.00">
        <route edges="top3D3 D3right3"/>
    </vehicle>
    <vehicle id="truck_left1B0.8" type="truck" depart="356.00">
        <route edges="left1B0 B0B1 B1B2 B2A2 A2bottom2"/>
    </vehicle>
    <vehicle id="truck_right2C3.1" type="truck" depart="366.00">
        <route edges="right2C3 C3C2 C2B2 B2A2 A2bottom2"/>
    </vehicle>
    <vehicle id="truck_right3D3.6" type="truck" depart="366.00">
        <route edges="right3D3 D3D2 D2C2 C2B2 B2B3 B3C3 C3D3 D3top3"/>
    </vehicle>
    <vehicle id="truck_left2C0.2" type="truck" depart="370.00">
        <route edges="left2C0 C0D0 D0top0"/>
    </vehicle>
    <vehicle id="truck_right0A3.8" type="truck" depart="377.00">
        <route edges="right0A3 A3B3 B3right1"/>
    </vehicle>
    <vehicle id="truck_left2C0.3" type="truck" depart="395.00">
        <route edges="left2C0 C0C1 C1B1 B1B0 B0A0 A0A1 A1B1 B1C1 C1C2 C2B2 B2A2 A2A3 A3A2 A2bottom2"/>
    </vehicle>
    <vehicle id="truck_right0A3.9" type="truck" depart="399.00">
        <route edges="right0A3 A3A2 A2A1 A1A0 A0left0"/>
    </vehicle>
    <vehicle id="truck_bottom2A2.6" type="truck" depart="400.00">
        <route edges="bottom2A2 A2B2 B2B3 B3right1"/>
    </vehicle>
    <vehicle id="truck_bottom2A2.7" type="truck" depart="403.00">
        <route edges="bottom2A2 A2B2 B2C2 C2D2 D2top2"/>
    </vehicle>
    <vehicle id="truck_left1B0.9" type="truck" depart="408.00">
        <route edges="left1B0 B0B1 B1B2 B2C2 C2D2 D2D1 D1top1"/>
    </vehicle>
    <vehicle id="truck_right1B3.5" type="truck" depart="410.00">
        <route edges="right1B3 B3B2 B2C2 C2C3 C3D3 D3top3"/>
    </vehicle>
    <vehicle id="truck_right1B3.6" type="truck" depart="419.00">
        <route edges="right1B3 B3C3 C3D3 D3D2 D2D1 D1top1"/>
    </vehicle>
    <vehicle id="truck_right1B3.7" type="truck" depart="430.00">
        <route edges="right1B3 B3A3 A3right0"/>
    </vehicle>
    <vehicle id="truck_left2C0.4" type="truck" depart="431.00">
        <route edges="left2C0 C0B0 B0B1 B1C1 C1D1 D1top1"/>
    </vehicle>
    <vehicle id="truck_bottom2A2.8" type="truck" depart="439.00">
        <route edges="bottom2A2 A2B2 B2B1 B1B0 B0A0 A0left0"/>
    </vehicle>
    <vehicle id="truck_bottom2A2.9" type="truck" depart="450.00">
        <route edges="bottom2A2 A2B2 B2C2 C2D2 D2top2"/>
    </vehicle>
    <vehicle id="truck_right3D3.7" type="truck" depart="450.00">
        <route edges="right3D3 D3D2 D2top2"/>
    </vehicle>
    <vehicle id="truck_bottom2A2.10" type="truck" depart="452.00">
        <route edges="bottom2A2 A2A1 A1A0 A0left0"/>
    </vehicle>
    <vehicle id="truck_bottom2A2.11" type="truck" depart="457.00">
        <route edges="bottom2A2 A2B2 B2C2 C2C3 C3B3 B3right1"/>
    </vehicle>
    <vehicle id="truck_right1B3.8" type="truck" depart="458.00">
        <route edges="right1B3 B3B2 B2B1 B1B0 B0left1"/>
    </vehicle>
    <vehicle id="truck_bottom2A2.12" type="truck" depart="459.00">
        <route edges="bottom2A2 A2B2 B2C2 C2D2 D2D1 D1D0 D0top0"/>
    </vehicle>
    <vehicle id="truck_right3D3.8" type="truck" depart="465.00">
        <route edges="right3D3 D3D2 D2C2 C2C1 C1C0 C0left2"/>
    </vehicle>
    <vehicle id="truck_left3D0.7" type="truck" depart="466.00">
        <route edges="left3D0 D0D1 D1D2 D2D3 D3right3"/>
    </vehicle>
    <vehicle id="truck_top0D0.7" type="truck" depart="474.00">
        <route edges="top0D0 D0C0 C0B0 B0B1 B1A1 A1bottom1"/>
    </vehicle>
    <vehicle id="truck_top3D3.7" type="truck" depart="478.00">
        <route edges="top3D3 D3C3 C3B3 B3A3 A3A2 A2A1 A1A0 A0bottom0"/>
    </vehicle>
    <vehicle id="truck_top2D2.6" type="truck" depart="488.00">
        <route edges="top2D2 D2C2 C2B2 B2C2 C2C1 C1C0 C0left2"/>
    </vehicle>
    <vehicle id="truck_left2C0.5" type="truck" depart="495.00">
        <route edges="left2C0 C0C1 C1C2 C2C3 C3right2"/>
    </vehicle>
    <vehicle id="truck_right0A3.10" type="truck" depart="504.00">
        <route edges="right0A3 A3A2 A2A1 A1A0 A0left0"/>
    </vehicle>
    <vehicle id="truck_left3D0.8" type="truck" depart="505.00">
        <route edges="left3D0 D0D1 D1C1 C1B1 B1A1 A1bottom1"/>
    </vehicle>
    <vehicle id="truck_bottom2A2.13" type="truck" depart="509.00">
        <route edges="bottom2A2 A2A3 A3right0"/>
    </vehicle>
    <vehicle id="truck_right2C3.2" type="truck" depart="512.00">
        <route edges="right2C3 C3C2 C2C1 C1B1 B1A1 A1bottom1"/>
    </vehicle>
    <vehicle id="truck_left1B0.10" type="truck" depart="527.00">
        <route edges="left1B0 B0A0 A0A1 A1A2 A2B2 B2C2 C2D2 D2top2"/>
    </vehicle>
    <vehicle id="truck_bottom2A2.14" type="truck" depart="531.00">
        <route edges="bottom2A2 A2A3 A3right0"/>
    </vehicle>
    <vehicle id="truck_left3D0.9" type="truck" depart="532.00">
        <route edges="left3D0 D0D1 D1C1 C1B1 B1B0 B0left1"/>
    </vehicle>
    <vehicle id="truck_top1D1.7" type="truck" depart="533.00">
        <route edges="top1D1 D1C1 C1B1 B1A1 A1A2 A2bottom2"/>
    </vehicle>
    <vehicle id="truck_right0A3.11" type="truck" depart="539.00">
        <route edges="right0A3 A3A2 A2A1 A1A0 A0left0"/>
    </vehicle>
    <vehicle id="truck_right1B3.9" type="truck" depart="541.00">
        <route edges="right1B3 B3C3 C3C2 C2C1 C1C0 C0left2"/>
    </vehicle>
    <vehicle id="truck_bottom0A0.4" type="truck" depart="543.00">
        <route edges="bottom0A0 A0left0"/>
    </vehicle>
    <vehicle id="truck_bottom2A2.15" type="truck" depart="544.00">
        <route edges="bottom2A2 A2B2 B2A2 A2A1 A1A0 A0bottom0"/>
    </vehicle>
    <vehicle id="truck_top3D3.8" type="truck" depart="544.00">
        <route edges="top3D3 D3right3"/>
    </vehicle>
    <vehicle id="truck_top0D0.8" type="truck" depart="556.00">
        <route edges="top0D0 D0C0 C0B0 B0A0 A0bottom0"/>
    </vehicle>
    <vehicle id="truck_left2C0.6" type="truck" depart="564.00">
        <route edges="left2C0 C0B0 B0B1 B1A1 A1bottom1"/>
    </vehicle>
    <vehicle id="truck_top2D2.7" type="truck" depart="573.00">
        <route edges="top2D2 D2C2 C2B2 B2B3 B3right1"/>
    </vehicle>
    <vehicle id="truck_left2C0.7" type="truck" depart="575.00">
        <route edges="left2C0 C0C1 C1B1 B1C1 C1C2 C2D2 D2D3 D3right3"/>
    </vehicle>
    <vehicle id="truck_left1B0.11" type="truck" depart="576.00">
        <route edges="left1B0 B0C0 C0D0 D0top0"/>
    </vehicle>
    <vehicle id="truck_bottom3A3.3" type="truck" depart="581.00">
        <route edges="bottom3A3 A3right0"/>
    </vehicle>
    <vehicle id="truck_left1B0.12" type="truck" depart="584.00">
        <route edges="left1B0 B0B1 B1C1 C1C0 C0C1 C1C2 C2C3 C3right2"/>
    </vehicle>
    <vehicle id="truck_top3D3.9" type="truck" depart="587.00">
        <route edges="top3D3 D3top3"/>
    </vehicle>
    <vehicle id="truck_top3D3.10" type="truck" depart="592.00">
        <route edges="top3D3 D3C3 C3B3 B3B2 B2A2 A2A3 A3right0"/>
    </vehicle>
    <vehicle id="truck_top0D0.9" type="truck" depart="593.00">
        <route edges="top0D0 D0C0 C0B0 B0A0 A0bottom0"/>
    </vehicle>
    <vehicle id="truck_bottom1A1.5" type="truck" depart="596.00">
        <route edges="bottom1A1 A1B1 B1C1 C1C2 C2C3 C3B3 B3right1"/>
    </vehicle>
    <vehicle id="truck_right0A3.12" type="truck" depart="607.00">
        <route edges="right0A3 A3A2 A2A1 A1A0 A0left0"/>
    </vehicle>
    <vehicle id="truck_bottom3A3.4" type="truck" depart="612.00">
        <route edges="bottom3A3 A3B3 B3C3 C3D3 D3top3"/>
    </vehicle>
    <vehicle id="truck_right3D3.9" type="truck" depart="614.00">
        <route edges="right3D3 D3C3 C3B3 B3A3 A3right0"/>
    </vehicle>
    <vehicle id="truck_left3D0.10" type="truck" depart="616.00">
        <route edges="left3D0 D0top0"/>
    </vehicle>
    <vehicle id="truck_left3D0.11" type="truck" depart="624.00">
        <route edges="left3D0 D0C0 C0B0 B0B1 B1B2 B2B3 B3right1"/>
    </vehicle>
    <vehicle id="truck_right3D3.10" type="truck" depart="624.00">
        <route edges="right3D3 D3D2 D2D1 D1C1 C1B1 B1A1 A1A0 A0left0"/>
    </vehicle>
    <vehicle id="truck_bottom3A3.5" type="truck" depart="628.00">
        <route edges="bottom3A3 A3right0"/>
    </vehicle>
    <vehicle id="truck_right1B3.10" type="truck" depart="631.00">
        <route edges="right1B3 B3right1"/>
    </vehicle>
    <vehicle id="truck_top3D3.11" type="truck" depart="639.00">
        <route edges="top3D3 D3C3 C3B3 B3B2 B2B1 B1B0 B0A0 A0bottom0"/>
    </vehicle>
    <vehicle id="truck_bottom1A1.6" type="truck" depart="645.00">
        <route edges="bottom1A1 A1A2 A2A3 A3bottom3"/>
    </vehicle>
    <vehicle id="truck_top3D3.12" type="truck" depart="650.00">
        <route edges="top3D3 D3right3"/>
    </vehicle>
    <vehicle id="truck_bottom0A0.5" type="truck" depart="660.00">
        <route edges="bottom0A0 A0A1 A1bottom1"/>
    </vehicle>
    <vehicle id="truck_top3D3.13" type="truck" depart="663.00">
        <route edges="top3D3 D3D2 D2D1 D1C1 C1B1 B1A1 A1bottom1"/>
    </vehicle>
    <vehicle id="truck_right3D3.11" type="truck" depart="664.00">
        <route edges="right3D3 D3top3"/>
    </vehicle>
    <vehicle id="truck_left3D0.12" type="truck" depart="671.00">
        <route edges="left3D0 D0D1 D1C1 C1B1 B1A1 A1bottom1"/>
    </vehicle>
    <vehicle id="truck_left1B0.13" type="truck" depart="678.00">
        <route edges="left1B0 B0C0 C0D0 D0top0"/>
    </vehicle>
    <vehicle id="truck_left1B0.14" type="truck" depart="688.00">
        <route edges="left1B0 B0C0 C0D0 D0D1 D1D2 D2D3 D3right3"/>
    </vehicle>
    <vehicle id="truck_top3D3.14" type="truck" depart="692.00">
        <route edges="top3D3 D3right3"/>
    </vehicle>
    <vehicle id="truck_right2C3.3" type="truck" depart="730.00">
        <route edges="right2C3 C3C2 C2C1 C1B1 B1B2 B2C2 C2D2 D2top2"/>
    </vehicle>
    <vehicle id="truck_left3D0.13" type="truck" depart="731.00">
        <route edges="left3D0 D0top0"/>
    </vehicle>
    <vehicle id="truck_top1D1.8" type="truck" depart="735.00">
        <route edges="top1D1 D1C1 C1C2 C2C3 C3B3 B3A3 A3bottom3"/>
    </vehicle>
    <vehicle id="truck_left0A0.7" type="truck" depart="743.00">
        <route edges="left0A0 A0A1 A1bottom1"/>
    </vehicle>
    <vehicle id="truck_right1B3.11" type="truck" depart="765.00">
        <route edges="right1B3 B3B2 B2B1 B1C1 C1D1 D1top1"/>
    </vehicle>
    <vehicle id="truck_left2C0.8" type="truck" depart="766.00">
        <route edges="left2C0 C0C1 C1C2 C2B2 B2A2 A2A3 A3right0"/>
    </vehicle>
    <vehicle id="truck_right3D3.12" type="truck" depart="779.00">
        <route edges="right3D3 D3D2 D2D1 D1D0 D0left3"/>
    </vehicle>
    <vehicle id="truck_top2D2.8" type="truck" depart="784.00">
        <route edges="top2D2 D2D3 D3right3"/>
    </vehicle>
    <vehicle id="truck_right0A3.13" type="truck" depart="790.00">
        <route edges="right0A3 A3B3 B3C3 C3D3 D3top3"/>
    </vehicle>
    <vehicle id="truck_bottom3A3.6" type="truck" depart="799.00">
        <route edges="bottom3A3 A3B3 B3C3 C3C2 C2D2 D2top2"/>
    </vehicle>
    <vehicle id="truck_left2C0.9" type="truck" depart="804.00">
        <route edges="left2C0 C0D0 D0top0"/>
    </vehicle>
    <vehicle id="truck_right3D3.13" type="truck" depart="810.00">
        <route edges="right3D3 D3D2 D2D1 D1D0 D0left3"/>
    </vehicle>
    <vehicle id="truck_bottom3A3.7" type="truck" depart="815.00">
        <route edges="bottom3A3 A3B3 B3B2 B2B1 B1B0 B0left1"/>
    </vehicle>
    <vehicle id="truck_right0A3.14" type="truck" depart="815.00">
        <route edges="right0A3 A3A2 A2A1 A1A0 A0left0"/>
    </vehicle>
    <vehicle id="truck_left0A0.8" type="truck" depart="818.00">
        <route edges="left0A0 A0A1 A1bottom1"/>
    </vehicle>
    <vehicle id="truck_right0A3.15" type="truck" depart="827.00">
        <route edges="right0A3 A3A2 A2A1 A1A0 A0left0"/>
    </vehicle>
    <vehicle id="truck_left0A0.9" type="truck" depart="837.00">
        <route edges="left0A0 A0A1 A1A2 A2A3 A3bottom3"/>
    </vehicle>
    <vehicle id="truck_left1B0.15" type="truck" depart="839.00">
        <route edges="left1B0 B0C0 C0D0 D0top0"/>
    </vehicle>
    <vehicle id="truck_right2C3.4" type="truck" depart="843.00">
        <route edges="right2C3 C3C2 C2C1 C1C0 C0D0 D0top0"/>
    </vehicle>
    <vehicle id="truck_left3D0.14" type="truck" depart="851.00">
        <route edges="left3D0 D0D1 D1D2 D2top2"/>
    </vehicle>
    <vehicle id="truck_right1B3.12" type="truck" depart="854.00">
        <route edges="right1B3 B3B2 B2C2 C2D2 D2top2"/>
    </vehicle>
    <vehicle id="truck_right3D3.14" type="truck" depart="858.00">
        <route edges="right3D3 D3D2 D2D1 D1top1"/>
    </vehicle>
    <vehicle id="truck_left0A0.10" type="truck" depart="861.00">
        <route edges="left0A0 A0B0 B0C0 C0C1 C1C2 C2C3 C3C2 C2C1 C1C0 C0D0 D0top0"/>
    </vehicle>
    <vehicle id="truck_top0D0.10" type="truck" depart="871.00">
        <route edges="top0D0 D0C0 C0B0 B0B1 B1A1 A1A0 A0bottom0"/>
    </vehicle>
    <vehicle id="truck_top3D3.15" type="truck" depart="875.00">
        <route edges="top3D3 D3C3 C3right2"/>
    </vehicle>
    <vehicle id="truck_right3D3.15" type="truck" depart="878.00">
        <route edges="right3D3 D3D2 D2top2"/>
    </vehicle>
    <vehicle id="truck_top1D1.9" type="truck" depart="885.00">
        <route edges="top1D1 D1C1 C1B1 B1A1 A1B1 B1C1 C1C0 C0left2"/>
    </vehicle>
    <vehicle id="truck_left1B0.16" type="truck" depart="889.00">
        <route edges="left1B0 B0B1 B1C1 C1D1 D1D0 D0C0 C0left2"/>
    </vehicle>
    <vehicle id="truck_bottom3A3.8" type="truck" depart="890.00">
        <route edges="bottom3A3 A3B3 B3C3 C3D3 D3D2 D2D1 D1C1 C1B1 B1A1 A1A0 A0A1 A1A2 A2A3 A3right0"/>
    </vehicle>
    <vehicle id="truck_right1B3.13" type="truck" depart="892.00">
        <route edges="right1B3 B3B2 B2B1 B1B0 B0left1"/>
    </vehicle>
    <vehicle id="truck_left0A0.11" type="truck" depart="894.00">
        <route edges="left0A0 A0A1 A1bottom1"/>
    </vehicle>
    <vehicle id="truck_left0A0.12" type="truck" depart="904.00">
        <route edges="left0A0 A0bottom0"/>
    </vehicle>
    <vehicle id="truck_right3D3.16" type="truck" depart="908.00">
        <route edges="right3D3 D3D2 D2D1 D1D0 D0left3"/>
    </vehicle>
    <vehicle id="truck_right0A3.16" type="truck" depart="914.00">
        <route edges="right0A3 A3A2 A2A1 A1bottom1"/>
    </vehicle>
    <vehicle id="truck_right0A3.17" type="truck" depart="917.00">
        <route edges="right0A3 A3A2 A2B2 B2C2 C2D2 D2D3 D3C3 C3B3 B3A3 A3right0"/>
    </vehicle>
    <vehicle id="truck_right1B3.14" type="truck" depart="917.00">
        <route edges="right1B3 B3B2 B2A2 A2bottom2"/>
    </vehicle>
    <vehicle id="truck_top1D1.10" type="truck" depart="921.00">
        <route edges="top1D1 D1C1 C1B1 B1B0 B0A0 A0bottom0"/>
    </vehicle>
    <vehicle id="truck_left0A0.13" type="truck" depart="924.00">
        <route edges="left0A0 A0A1 A1A2 A2bottom2"/>
    </vehicle>
    <vehicle id="truck_right3D3.17" type="truck" depart="936.00">
        <route edges="right3D3 D3D2 D2D1 D1C1 C1B1 B1B0 B0A0 A0bottom0"/>
    </vehicle>
    <vehicle id="truck_left2C0.10" type="truck" depart="962.00">
        <route edges="left2C0 C0D0 D0top0"/>
    </vehicle>
    <vehicle id="truck_bottom2A2.16" type="truck" depart="963.00">
        <route edges="bottom2A2 A2A1 A1A0 A0bottom0"/>
    </vehicle>
    <vehicle id="truck_right0A3.18" type="truck" depart="966.00">
        <route edges="right0A3 A3B3 B3C3 C3D3 D3top3"/>
    </vehicle>
    <vehicle id="truck_bottom1A1.7" type="truck" depart="981.00">
        <route edges="bottom1A1 A1A2 A2B2 B2B1 B1B0 B0A0 A0bottom0"/>
    </vehicle>
    <vehicle id="truck_left3D0.15" type="truck" depart="986.00">
        <route edges="left3D0 D0top0"/>
    </vehicle>
    <vehicle id="truck_right3D3.18" type="truck" depart="989.00">
        <route edges="right3D3 D3C3 C3B3 B3B2 B2B1 B1C1 C1D1 D1D0 D0top0"/>
    </vehicle>
    <vehicle id="truck_top3D3.16" type="truck" depart="999.00">
        <route edges="top3D3 D3C3 C3B3 B3right1"/>
    </vehicle>
    <vehicle id="truck_top1D1.11" type="truck" depart="1005.00">
        <route edges="top1D1 D1D0 D0left3"/>
    </vehicle>
    <vehicle id="truck_top3D3.17" type="truck" depart="1005.00">
        <route edges="top3D3 D3D2 D2top2"/>
    </vehicle>
    <vehicle id="truck_bottom2A2.17" type="truck" depart="1006.00">
        <route edges="bottom2A2 A2B2 B2B3 B3right1"/>
    </vehicle>
    <vehicle id="truck_right1B3.15" type="truck" depart="1006.00">
        <route edges="right1B3 B3B2 B2C2 C2C3 C3C2 C2C1 C1B1 B1A1 A1bottom1"/>
    </vehicle>
    <vehicle id="truck_top2D2.9" type="truck" depart="1009.00">
        <route edges="top2D2 D2D1 D1top1"/>
    </vehicle>
    <vehicle id="truck_bottom0A0.6" type="truck" depart="1013.00">
        <route edges="bottom0A0 A0left0"/>
    </vehicle>
    <vehicle id="truck_top0D0.11" type="truck" depart="1015.00">
        <route edges="top0D0 D0C0 C0C1 C1C2 C2B2 B2A2 A2bottom2"/>
    </vehicle>
    <vehicle id="truck_top3D3.18" type="truck" depart="1021.00">