<?xml version='1.0' encoding='utf-8'?>
<connections xmlns:xsi="http://www.w3.org/2001/XMLSchema-instance" xsi:noNamespaceSchemaLocation="http://sumo.dlr.de/xsd/connections_file.xsd">
    <connection from="A1A0" to="A0B0" fromLane="1" toLane="1" />
    <connection from="A1A0" to="A0left0" fromLane="2" toLane="2" />
    <connection from="A1A0" to="A0bottom0" fromLane="3" toLane="4" />
    <connection from="A1A0" to="A0A1" fromLane="3" toLane="4" />
    <connection from="B0A0" to="A0left0" fromLane="1" toLane="1" />
    <connection from="B0A0" to="A0bottom0" fromLane="2" toLane="2" />
    <connection from="B0A0" to="A0bottom0" fromLane="2" toLane="3" />
    <connection from="B0A0" to="A0A1" fromLane="3" toLane="4" />
    <connection from="B0A0" to="A0B0" fromLane="3" toLane="3" />
    <connection from="bottom0A0" to="A0A1" fromLane="1" toLane="1" />
    <connection from="bottom0A0" to="A0B0" fromLane="2" toLane="2" />
    <connection from="bottom0A0" to="A0B0" fromLane="3" toLane="3" />
    <connection from="bottom0A0" to="A0left0" fromLane="4" toLane="3" />
    <connection from="bottom0A0" to="A0bottom0" fromLane="4" toLane="4" />
    <connection from="left0A0" to="A0bottom0" fromLane="1" toLane="1" />
    <connection from="left0A0" to="A0A1" fromLane="2" toLane="2" />
    <connection from="left0A0" to="A0A1" fromLane="3" toLane="3" />
    <connection from="left0A0" to="A0B0" fromLane="4" toLane="3" />
    <connection from="left0A0" to="A0left0" fromLane="4" toLane="3" />
    <connection from="A0A1" to="A1bottom1" fromLane="1" toLane="1" />
    <connection from="A0A1" to="A1A2" fromLane="2" toLane="2" />
    <connection from="A0A1" to="A1A2" fromLane="3" toLane="3" />
    <connection from="A0A1" to="A1B1" fromLane="4" toLane="3" />
    <connection from="A0A1" to="A1A0" fromLane="4" toLane="3" />
    <connection from="A2A1" to="A1B1" fromLane="1" toLane="1" />
    <connection from="A2A1" to="A1A0" fromLane="2" toLane="2" />
    <connection from="A2A1" to="A1bottom1" fromLane="3" toLane="4" />
    <connection from="A2A1" to="A1A2" fromLane="3" toLane="3" />
    <connection from="B1A1" to="A1A0" fromLane="1" toLane="1" />
    <connection from="B1A1" to="A1bottom1" fromLane="2" toLane="2" />
    <connection from="B1A1" to="A1bottom1" fromLane="2" toLane="3" />
    <connection from="B1A1" to="A1A2" fromLane="3" toLane="3" />
    <connection from="B1A1" to="A1B1" fromLane="3" toLane="3" />
    <connection from="bottom1A1" to="A1A2" fromLane="1" toLane="1" />
    <connection from="bottom1A1" to="A1B1" fromLane="2" toLane="2" />
    <connection from="bottom1A1" to="A1A0" fromLane="3" toLane="3" />
    <connection from="bottom1A1" to="A1bottom1" fromLane="3" toLane="4" />
    <connection from="A1A2" to="A2bottom2" fromLane="1" toLane="1" />
    <connection from="A1A2" to="A2right0" fromLane="2" toLane="2" />
    <connection from="A1A2" to="A2B2" fromLane="3" toLane="4" />
    <connection from="A1A2" to="A2A1" fromLane="3" toLane="3" />
    <connection from="B2A2" to="A2A1" fromLane="1" toLane="1" />
    <connection from="B2A2" to="A2bottom2" fromLane="2" toLane="2" />
    <connection from="B2A2" to="A2bottom2" fromLane="3" toLane="3" />
    <connection from="B2A2" to="A2right0" fromLane="4" toLane="3" />
    <connection from="B2A2" to="A2B2" fromLane="4" toLane="4" />
    <connection from="bottom2A2" to="A2right0" fromLane="1" toLane="1" />
    <connection from="bottom2A2" to="A2B2" fromLane="2" toLane="2" />
    <connection from="bottom2A2" to="A2B2" fromLane="2" toLane="3" />
    <connection from="bottom2A2" to="A2A1" fromLane="3" toLane="3" />
    <connection from="bottom2A2" to="A2bottom2" fromLane="3" toLane="3" />
    <connection from="right0A2" to="A2B2" fromLane="1" toLane="1" />
    <connection from="right0A2" to="A2A1" fromLane="2" toLane="2" />
    <connection from="right0A2" to="A2bottom2" fromLane="3" toLane="3" />
    <connection from="right0A2" to="A2right0" fromLane="3" toLane="3" />
    <connection from="B1B0" to="B0C0" fromLane="1" toLane="1" />
    <connection from="B1B0" to="B0left1" fromLane="2" toLane="2" />
    <connection from="B1B0" to="B0left1" fromLane="3" toLane="3" />
    <connection from="B1B0" to="B0A0" fromLane="4" toLane="3" />
    <connection from="B1B0" to="B0B1" fromLane="4" toLane="4" />
    <connection from="A0B0" to="B0B1" fromLane="1" toLane="1" />
    <connection from="A0B0" to="B0C0" fromLane="2" toLane="2" />
    <connection from="A0B0" to="B0C0" fromLane="2" toLane="3" />
    <connection from="A0B0" to="B0left1" fromLane="3" toLane="3" />
    <connection from="A0B0" to="B0A0" fromLane="3" toLane="3" />
    <connection from="C0B0" to="B0left1" fromLane="1" toLane="1" />
    <connection from="C0B0" to="B0A0" fromLane="2" toLane="2" />
    <connection from="C0B0" to="B0B1" fromLane="3" toLane="4" />
    <connection from="C0B0" to="B0C0" fromLane="3" toLane="4" />
    <connection from="left1B0" to="B0A0" fromLane="1" toLane="1" />
    <connection from="left1B0" to="B0B1" fromLane="2" toLane="2" />
    <connection from="left1B0" to="B0B1" fromLane="3" toLane="3" />
    <connection from="left1B0" to="B0C0" fromLane="4" toLane="4" />
    <connection from="left1B0" to="B0left1" fromLane="4" toLane="3" />
    <connection from="B0B1" to="B1A1" fromLane="1" toLane="1" />
    <connection from="B0B1" to="B1B2" fromLane="2" toLane="2" />
    <connection from="B0B1" to="B1B2" fromLane="3" toLane="3" />
    <connection from="B0B1" to="B1C1" fromLane="4" toLane="4" />
    <connection from="B0B1" to="B1B0" fromLane="4" toLane="4" />
    <connection from="B2B1" to="B1C1" fromLane="1" toLane="1" />
    <connection from="B2B1" to="B1B0" fromLane="2" toLane="2" />
    <connection from="B2B1" to="B1B0" fromLane="2" toLane="3" />
    <connection from="B2B1" to="B1A1" fromLane="3" toLane="3" />
    <connection from="B2B1" to="B1B2" fromLane="3" toLane="4" />
    <connection from="A1B1" to="B1B2" fromLane="1" toLane="1" />
    <connection from="A1B1" to="B1C1" fromLane="2" toLane="2" />
    <connection from="A1B1" to="B1C1" fromLane="2" toLane="3" />
    <connection from="A1B1" to="B1B0" fromLane="3" toLane="4" />
    <connection from="A1B1" to="B1A1" fromLane="3" toLane="3" />
    <connection from="C1B1" to="B1B0" fromLane="1" toLane="1" />
    <connection from="C1B1" to="B1A1" fromLane="2" toLane="2" />
    <connection from="C1B1" to="B1B2" fromLane="3" toLane="4" />
    <connection from="C1B1" to="B1C1" fromLane="3" toLane="4" />
    <connection from="B1B2" to="B2A2" fromLane="1" toLane="1" />
    <connection from="B1B2" to="B2right1" fromLane="2" toLane="2" />
    <connection from="B1B2" to="B2right1" fromLane="3" toLane="3" />
    <connection from="B1B2" to="B2C2" fromLane="4" toLane="3" />
    <connection from="B1B2" to="B2B1" fromLane="4" toLane="3" />
    <connection from="A2B2" to="B2right1" fromLane="1" toLane="1" />
    <connection from="A2B2" to="B2C2" fromLane="2" toLane="2" />
    <connection from="A2B2" to="B2C2" fromLane="3" toLane="3" />
    <connection from="A2B2" to="B2B1" fromLane="4" toLane="3" />
    <connection from="A2B2" to="B2A2" fromLane="4" toLane="4" />
    <connection from="C2B2" to="B2B1" fromLane="1" toLane="1" />
    <connection from="C2B2" to="B2A2" fromLane="2" toLane="2" />
    <connection from="C2B2" to="B2A2" fromLane="2" toLane="3" />
    <connection from="C2B2" to="B2right1" fromLane="3" toLane="3" />
    <connection from="C2B2" to="B2C2" fromLane="3" toLane="3" />
    <connection from="right1B2" to="B2C2" fromLane="1" toLane="1" />
    <connection from="right1B2" to="B2B1" fromLane="2" toLane="2" />
    <connection from="right1B2" to="B2A2" fromLane="3" toLane="4" />
    <connection from="right1B2" to="B2right1" fromLane="3" toLane="3" />
    <connection from="C1C0" to="C0top0" fromLane="1" toLane="1" />
    <connection from="C1C0" to="C0left2" fromLane="2" toLane="2" />
    <connection from="C1C0" to="C0B0" fromLane="3" toLane="3" />
    <connection from="C1C0" to="C0C1" fromLane="3" toLane="3" />
    <connection from="B0C0" to="C0C1" fromLane="1" toLane="1" />
    <connection from="B0C0" to="C0top0" fromLane="2" toLane="2" />
    <connection from="B0C0" to="C0top0" fromLane="3" toLane="3" />
    <connection from="B0C0" to="C0left2" fromLane="4" toLane="3" />
    <connection from="B0C0" to="C0B0" fromLane="4" toLane="3" />
    <connection from="top0C0" to="C0left2" fromLane="1" toLane="1" />
    <connection from="top0C0" to="C0B0" fromLane="2" toLane="2" />
    <connection from="top0C0" to="C0B0" fromLane="3" toLane="3" />
    <connection from="top0C0" to="C0C1" fromLane="4" toLane="3" />
    <connection from="top0C0" to="C0top0" fromLane="4" toLane="3" />
    <connection from="left2C0" to="C0B0" fromLane="1" toLane="1" />
    <connection from="left2C0" to="C0C1" fromLane="2" toLane="2" />
    <connection from="left2C0" to="C0C1" fromLane="3" toLane="3" />
    <connection from="left2C0" to="C0top0" fromLane="4" toLane="3" />
    <connection from="left2C0" to="C0left2" fromLane="4" toLane="3" />
    <connection from="C0C1" to="C1B1" fromLane="1" toLane="1" />
    <connection from="C0C1" to="C1C2" fromLane="2" toLane="2" />
    <connection from="C0C1" to="C1top1" fromLane="3" toLane="3" />
    <connection from="C0C1" to="C1C0" fromLane="3" toLane="3" />
    <connection from="C2C1" to="C1top1" fromLane="1" toLane="1" />
    <connection from="C2C1" to="C1C0" fromLane="2" toLane="2" />
    <connection from="C2C1" to="C1B1" fromLane="3" toLane="3" />
    <connection from="C2C1" to="C1C2" fromLane="3" toLane="3" />
    <connection from="B1C1" to="C1C2" fromLane="1" toLane="1" />
    <connection from="B1C1" to="C1top1" fromLane="2" toLane="2" />
    <connection from="B1C1" to="C1top1" fromLane="3" toLane="3" />
    <connection from="B1C1" to="C1C0" fromLane="4" toLane="3" />
    <connection from="B1C1" to="C1B1" fromLane="4" toLane="3" />
    <connection from="top1C1" to="C1C0" fromLane="1" toLane="1" />
    <connection from="top1C1" to="C1B1" fromLane="2" toLane="2" />
    <connection from="top1C1" to="C1C2" fromLane="3" toLane="3" />
    <connection from="top1C1" to="C1top1" fromLane="3" toLane="3" />
    <connection from="C1C2" to="C2B2" fromLane="1" toLane="1" />
    <connection from="C1C2" to="C2right2" fromLane="2" toLane="2" />
    <connection from="C1C2" to="C2top2" fromLane="3" toLane="3" />
    <connection from="C1C2" to="C2C1" fromLane="3" toLane="3" />
    <connection from="B2C2" to="C2right2" fromLane="1" toLane="1" />
    <connection from="B2C2" to="C2top2" fromLane="2" toLane="2" />
    <connection from="B2C2" to="C2C1" fromLane="3" toLane="3" />
    <connection from="B2C2" to="C2B2" fromLane="3" toLane="3" />
    <connection from="top2C2" to="C2C1" fromLane="1" toLane="1" />
    <connection from="top2C2" to="C2B2" fromLane="2" toLane="2" />
    <connection from="top2C2" to="C2B2" fromLane="3" toLane="3" />
    <connection from="top2C2" to="C2right2" fromLane="4" toLane="3" />
    <connection from="top2C2" to="C2top2" fromLane="4" toLane="3" />
    <connection from="right2C2" to="C2top2" fromLane="1" toLane="1" />
    <connection from="right2C2" to="C2C1" fromLane="2" toLane="2" />
    <connection from="right2C2" to="C2B2" fromLane="3" toLane="3" />
    <connection from="right2C2" to="C2right2" fromLane="3" toLane="3" />
</connections>