<?xml version='1.0' encoding='utf-8'?>
<edges xmlns:xsi="http://www.w3.org/2001/XMLSchema-instance" xsi:noNamespaceSchemaLocation="http://sumo.dlr.de/xsd/edges_file.xsd">
    <edge id="A0A1" from="A0" to="A1" type="arterial_4" />
    <edge id="A1A0" from="A1" to="A0" type="arterial_3" />
    <edge id="A1A2" from="A1" to="A2" type="arterial_3" />
    <edge id="A2A1" from="A2" to="A1" type="arterial_3" />
    <edge id="B0B1" from="B0" to="B1" type="arterial_4" />
    <edge id="B1B0" from="B1" to="B0" type="arterial_4" />
    <edge id="B1B2" from="B1" to="B2" type="arterial_4" />
    <edge id="B2B1" from="B2" to="B1" type="arterial_3" />
    <edge id="C0C1" from="C0" to="C1" type="arterial_3" />
    <edge id="C1C0" from="C1" to="C0" type="arterial_3" />
    <edge id="C1C2" from="C1" to="C2" type="arterial_3" />
    <edge id="C2C1" from="C2" to="C1" type="arterial_3" />
    <edge id="A0B0" from="A0" to="B0" type="arterial_3" />
    <edge id="B0A0" from="B0" to="A0" type="arterial_3" />
    <edge id="B0C0" from="B0" to="C0" type="arterial_4" />
    <edge id="C0B0" from="C0" to="B0" type="arterial_3" />
    <edge id="A1B1" from="A1" to="B1" type="arterial_3" />
    <edge id="B1A1" from="B1" to="A1" type="arterial_3" />
    <edge id="B1C1" from="B1" to="C1" type="arterial_4" />
    <edge id="C1B1" from="C1" to="B1" type="arterial_3" />
    <edge id="A2B2" from="A2" to="B2" type="arterial_4" />
    <edge id="B2A2" from="B2" to="A2" type="arterial_4" />
    <edge id="B2C2" from="B2" to="C2" type="arterial_3" />
    <edge id="C2B2" from="C2" to="B2" type="arterial_3" />
    <edge id="top0C0" from="top0" to="C0" type="arterial_4" />
    <edge id="C0top0" from="C0" to="top0" type="arterial_3" />
    <edge id="top1C1" from="top1" to="C1" type="arterial_3" />
    <edge id="C1top1" from="C1" to="top1" type="arterial_3" />
    <edge id="top2C2" from="top2" to="C2" type="arterial_4" />
    <edge id="C2top2" from="C2" to="top2" type="arterial_3" />
    <edge id="bottom0A0" from="bottom0" to="A0" type="arterial_4" />
    <edge id="A0bottom0" from="A0" to="bottom0" type="arterial_4" />
    <edge id="bottom1A1" from="bottom1" to="A1" type="arterial_3" />
    <edge id="A1bottom1" from="A1" to="bottom1" type="arterial_4" />
    <edge id="bottom2A2" from="bottom2" to="A2" type="arterial_3" />
    <edge id="A2bottom2" from="A2" to="bottom2" type="arterial_3" />
    <edge id="left0A0" from="left0" to="A0" type="arterial_4" />
    <edge id="A0left0" from="A0" to="left0" type="arterial_3" />
    <edge id="left1B0" from="left1" to="B0" type="arterial_4" />
    <edge id="B0left1" from="B0" to="left1" type="arterial_3" />
    <edge id="left2C0" from="left2" to="C0" type="arterial_4" />
    <edge id="C0left2" from="C0" to="left2" type="arterial_3" />
    <edge id="right0A2" from="right0" to="A2" type="arterial_3" />
    <edge id="A2right0" from="A2" to="right0" type="arterial_3" />
    <edge id="right1B2" from="right1" to="B2" type="arterial_3" />
    <edge id="B2right1" from="B2" to="right1" type="arterial_3" />
    <edge id="right2C2" from="right2" to="C2" type="arterial_3" />
    <edge id="C2right2" from="C2" to="right2" type="arterial_3" />
</edges>