<?xml version="1.0" encoding="UTF-8"?>
<additional xmlns:xsi="http://www.w3.org/2001/XMLSchema-instance" xsi:noNamespaceSchemaLocation="http://sumo.dlr.de/xsd/additional_file.xsd">

    <inductionLoop id="e1_B0A0_1" lane="B0A0_1" pos="-0.1" period="10" file="../outputs/e1_output.xml" friendlyPos="true"/>
    <inductionLoop id="e1_B0A0_2" lane="B0A0_2" pos="-0.1" period="10" file="../outputs/e1_output.xml" friendlyPos="true"/>
    <inductionLoop id="e1_B0A0_3" lane="B0A0_3" pos="-0.1" period="10" file="../outputs/e1_output.xml" friendlyPos="true"/>
    <inductionLoop id="e1_B0A0_4" lane="B0A0_4" pos="-0.1" period="10" file="../outputs/e1_output.xml" friendlyPos="true"/>

    <inductionLoop id="e1_A1A0_1" lane="A1A0_1" pos="-0.1" period="10" file="../outputs/e1_output.xml" friendlyPos="true"/>
    <inductionLoop id="e1_A1A0_2" lane="A1A0_2" pos="-0.1" period="10" file="../outputs/e1_output.xml" friendlyPos="true"/>
    <inductionLoop id="e1_A1A0_3" lane="A1A0_3" pos="-0.1" period="10" file="../outputs/e1_output.xml" friendlyPos="true"/>
    <inductionLoop id="e1_A1A0_4" lane="A1A0_4" pos="-0.1" period="10" file="../outputs/e1_output.xml" friendlyPos="true"/>
    <inductionLoop id="e1_A1A0_5" lane="A1A0_5" pos="-0.1" period="10" file="../outputs/e1_output.xml" friendlyPos="true"/>

    <inductionLoop id="e1_bottom0A0_1" lane="bottom0A0_1" pos="-0.1" period="10" file="../outputs/e1_output.xml" friendlyPos="true"/>
    <inductionLoop id="e1_bottom0A0_2" lane="bottom0A0_2" pos="-0.1" period="10" file="../outputs/e1_output.xml" friendlyPos="true"/>
    <inductionLoop id="e1_bottom0A0_3" lane="bottom0A0_3" pos="-0.1" period="10" file="../outputs/e1_output.xml" friendlyPos="true"/>
    <inductionLoop id="e1_bottom0A0_4" lane="bottom0A0_4" pos="-0.1" period="10" file="../outputs/e1_output.xml" friendlyPos="true"/>
    <inductionLoop id="e1_bottom0A0_5" lane="bottom0A0_5" pos="-0.1" period="10" file="../outputs/e1_output.xml" friendlyPos="true"/>

    <inductionLoop id="e1_left0A0_1" lane="left0A0_1" pos="-0.1" period="10" file="../outputs/e1_output.xml" friendlyPos="true"/>
    <inductionLoop id="e1_left0A0_2" lane="left0A0_2" pos="-0.1" period="10" file="../outputs/e1_output.xml" friendlyPos="true"/>
    <inductionLoop id="e1_left0A0_3" lane="left0A0_3" pos="-0.1" period="10" file="../outputs/e1_output.xml" friendlyPos="true"/>
    <inductionLoop id="e1_left0A0_4" lane="left0A0_4" pos="-0.1" period="10" file="../outputs/e1_output.xml" friendlyPos="true"/>
    <inductionLoop id="e1_left0A0_5" lane="left0A0_5" pos="-0.1" period="10" file="../outputs/e1_output.xml" friendlyPos="true"/>

    <inductionLoop id="e1_B1A1_1" lane="B1A1_1" pos="-0.1" period="10" file="../outputs/e1_output.xml" friendlyPos="true"/>
    <inductionLoop id="e1_B1A1_2" lane="B1A1_2" pos="-0.1" period="10" file="../outputs/e1_output.xml" friendlyPos="true"/>
    <inductionLoop id="e1_B1A1_3" lane="B1A1_3" pos="-0.1" period="10" file="../outputs/e1_output.xml" friendlyPos="true"/>
    <inductionLoop id="e1_B1A1_4" lane="B1A1_4" pos="-0.1" period="10" file="../outputs/e1_output.xml" friendlyPos="true"/>

    <inductionLoop id="e1_A2A1_1" lane="A2A1_1" pos="-0.1" period="10" file="../outputs/e1_output.xml" friendlyPos="true"/>
    <inductionLoop id="e1_A2A1_2" lane="A2A1_2" pos="-0.1" period="10" file="../outputs/e1_output.xml" friendlyPos="true"/>
    <inductionLoop id="e1_A2A1_3" lane="A2A1_3" pos="-0.1" period="10" file="../outputs/e1_output.xml" friendlyPos="true"/>
    <inductionLoop id="e1_A2A1_4" lane="A2A1_4" pos="-0.1" period="10" file="../outputs/e1_output.xml" friendlyPos="true"/>
    <inductionLoop id="e1_A2A1_5" lane="A2A1_5" pos="-0.1" period="10" file="../outputs/e1_output.xml" friendlyPos="true"/>

    <inductionLoop id="e1_bottom1A1_1" lane="bottom1A1_1" pos="-0.1" period="10" file="../outputs/e1_output.xml" friendlyPos="true"/>
    <inductionLoop id="e1_bottom1A1_2" lane="bottom1A1_2" pos="-0.1" period="10" file="../outputs/e1_output.xml" friendlyPos="true"/>
    <inductionLoop id="e1_bottom1A1_3" lane="bottom1A1_3" pos="-0.1" period="10" file="../outputs/e1_output.xml" friendlyPos="true"/>
    <inductionLoop id="e1_bottom1A1_4" lane="bottom1A1_4" pos="-0.1" period="10" file="../outputs/e1_output.xml" friendlyPos="true"/>

    <inductionLoop id="e1_A0A1_1" lane="A0A1_1" pos="-0.1" period="10" file="../outputs/e1_output.xml" friendlyPos="true"/>
    <inductionLoop id="e1_A0A1_2" lane="A0A1_2" pos="-0.1" period="10" file="../outputs/e1_output.xml" friendlyPos="true"/>
    <inductionLoop id="e1_A0A1_3" lane="A0A1_3" pos="-0.1" period="10" file="../outputs/e1_output.xml" friendlyPos="true"/>
    <inductionLoop id="e1_A0A1_4" lane="A0A1_4" pos="-0.1" period="10" file="../outputs/e1_output.xml" friendlyPos="true"/>
    <inductionLoop id="e1_A0A1_5" lane="A0A1_5" pos="-0.1" period="10" file="../outputs/e1_output.xml" friendlyPos="true"/>
    <inductionLoop id="e1_A0A1_6" lane="A0A1_6" pos="-0.1" period="10" file="../outputs/e1_output.xml" friendlyPos="true"/>

    <inductionLoop id="e1_B2A2_1" lane="B2A2_1" pos="-0.1" period="10" file="../outputs/e1_output.xml" friendlyPos="true"/>
    <inductionLoop id="e1_B2A2_2" lane="B2A2_2" pos="-0.1" period="10" file="../outputs/e1_output.xml" friendlyPos="true"/>
    <inductionLoop id="e1_B2A2_3" lane="B2A2_3" pos="-0.1" period="10" file="../outputs/e1_output.xml" friendlyPos="true"/>
    <inductionLoop id="e1_B2A2_4" lane="B2A2_4" pos="-0.1" period="10" file="../outputs/e1_output.xml" friendlyPos="true"/>

    <inductionLoop id="e1_A3A2_1" lane="A3A2_1" pos="-0.1" period="10" file="../outputs/e1_output.xml" friendlyPos="true"/>
    <inductionLoop id="e1_A3A2_2" lane="A3A2_2" pos="-0.1" period="10" file="../outputs/e1_output.xml" friendlyPos="true"/>
    <inductionLoop id="e1_A3A2_3" lane="A3A2_3" pos="-0.1" period="10" file="../outputs/e1_output.xml" friendlyPos="true"/>
    <inductionLoop id="e1_A3A2_4" lane="A3A2_4" pos="-0.1" period="10" file="../outputs/e1_output.xml" friendlyPos="true"/>
    <inductionLoop id="e1_A3A2_5" lane="A3A2_5" pos="-0.1" period="10" file="../outputs/e1_output.xml" friendlyPos="true"/>

    <inductionLoop id="e1_bottom2A2_1" lane="bottom2A2_1" pos="-0.1" period="10" file="../outputs/e1_output.xml" friendlyPos="true"/>
    <inductionLoop id="e1_bottom2A2_2" lane="bottom2A2_2" pos="-0.1" period="10" file="../outputs/e1_output.xml" friendlyPos="true"/>
    <inductionLoop id="e1_bottom2A2_3" lane="bottom2A2_3" pos="-0.1" period="10" file="../outputs/e1_output.xml" friendlyPos="true"/>
    <inductionLoop id="e1_bottom2A2_4" lane="bottom2A2_4" pos="-0.1" period="10" file="../outputs/e1_output.xml" friendlyPos="true"/>

    <inductionLoop id="e1_A1A2_1" lane="A1A2_1" pos="-0.1" period="10" file="../outputs/e1_output.xml" friendlyPos="true"/>
    <inductionLoop id="e1_A1A2_2" lane="A1A2_2" pos="-0.1" period="10" file="../outputs/e1_output.xml" friendlyPos="true"/>
    <inductionLoop id="e1_A1A2_3" lane="A1A2_3" pos="-0.1" period="10" file="../outputs/e1_output.xml" friendlyPos="true"/>
    <inductionLoop id="e1_A1A2_4" lane="A1A2_4" pos="-0.1" period="10" file="../outputs/e1_output.xml" friendlyPos="true"/>
    <inductionLoop id="e1_A1A2_5" lane="A1A2_5" pos="-0.1" period="10" file="../outputs/e1_output.xml" friendlyPos="true"/>
    <inductionLoop id="e1_A1A2_6" lane="A1A2_6" pos="-0.1" period="10" file="../outputs/e1_output.xml" friendlyPos="true"/>

    <inductionLoop id="e1_B3A3_1" lane="B3A3_1" pos="-0.1" period="10" file="../outputs/e1_output.xml" friendlyPos="true"/>
    <inductionLoop id="e1_B3A3_2" lane="B3A3_2" pos="-0.1" period="10" file="../outputs/e1_output.xml" friendlyPos="true"/>
    <inductionLoop id="e1_B3A3_3" lane="B3A3_3" pos="-0.1" period="10" file="../outputs/e1_output.xml" friendlyPos="true"/>
    <inductionLoop id="e1_B3A3_4" lane="B3A3_4" pos="-0.1" period="10" file="../outputs/e1_output.xml" friendlyPos="true"/>

    <inductionLoop id="e1_right0A3_1" lane="right0A3_1" pos="-0.1" period="10" file="../outputs/e1_output.xml" friendlyPos="true"/>
    <inductionLoop id="e1_right0A3_2" lane="right0A3_2" pos="-0.1" period="10" file="../outputs/e1_output.xml" friendlyPos="true"/>
    <inductionLoop id="e1_right0A3_3" lane="right0A3_3" pos="-0.1" period="10" file="../outputs/e1_output.xml" friendlyPos="true"/>
    <inductionLoop id="e1_right0A3_4" lane="right0A3_4" pos="-0.1" period="10" file="../outputs/e1_output.xml" friendlyPos="true"/>

    <inductionLoop id="e1_bottom3A3_1" lane="bottom3A3_1" pos="-0.1" period="10" file="../outputs/e1_output.xml" friendlyPos="true"/>
    <inductionLoop id="e1_bottom3A3_2" lane="bottom3A3_2" pos="-0.1" period="10" file="../outputs/e1_output.xml" friendlyPos="true"/>
    <inductionLoop id="e1_bottom3A3_3" lane="bottom3A3_3" pos="-0.1" period="10" file="../outputs/e1_output.xml" friendlyPos="true"/>
    <inductionLoop id="e1_bottom3A3_4" lane="bottom3A3_4" pos="-0.1" period="10" file="../outputs/e1_output.xml" friendlyPos="true"/>
    <inductionLoop id="e1_bottom3A3_5" lane="bottom3A3_5" pos="-0.1" period="10" file="../outputs/e1_output.xml" friendlyPos="true"/>

    <inductionLoop id="e1_A2A3_1" lane="A2A3_1" pos="-0.1" period="10" file="../outputs/e1_output.xml" friendlyPos="true"/>
    <inductionLoop id="e1_A2A3_2" lane="A2A3_2" pos="-0.1" period="10" file="../outputs/e1_output.xml" friendlyPos="true"/>
    <inductionLoop id="e1_A2A3_3" lane="A2A3_3" pos="-0.1" period="10" file="../outputs/e1_output.xml" friendlyPos="true"/>
    <inductionLoop id="e1_A2A3_4" lane="A2A3_4" pos="-0.1" period="10" file="../outputs/e1_output.xml" friendlyPos="true"/>
    <inductionLoop id="e1_A2A3_5" lane="A2A3_5" pos="-0.1" period="10" file="../outputs/e1_output.xml" friendlyPos="true"/>
    <inductionLoop id="e1_A2A3_6" lane="A2A3_6" pos="-0.1" period="10" file="../outputs/e1_output.xml" friendlyPos="true"/>

    <inductionLoop id="e1_C0B0_1" lane="C0B0_1" pos="-0.1" period="10" file="../outputs/e1_output.xml" friendlyPos="true"/>
    <inductionLoop id="e1_C0B0_2" lane="C0B0_2" pos="-0.1" period="10" file="../outputs/e1_output.xml" friendlyPos="true"/>
    <inductionLoop id="e1_C0B0_3" lane="C0B0_3" pos="-0.1" period="10" file="../outputs/e1_output.xml" friendlyPos="true"/>
    <inductionLoop id="e1_C0B0_4" lane="C0B0_4" pos="-0.1" period="10" file="../outputs/e1_output.xml" friendlyPos="true"/>

    <inductionLoop id="e1_B1B0_1" lane="B1B0_1" pos="-0.1" period="10" file="../outputs/e1_output.xml" friendlyPos="true"/>
    <inductionLoop id="e1_B1B0_2" lane="B1B0_2" pos="-0.1" period="10" file="../outputs/e1_output.xml" friendlyPos="true"/>
    <inductionLoop id="e1_B1B0_3" lane="B1B0_3" pos="-0.1" period="10" file="../outputs/e1_output.xml" friendlyPos="true"/>
    <inductionLoop id="e1_B1B0_4" lane="B1B0_4" pos="-0.1" period="10" file="../outputs/e1_output.xml" friendlyPos="true"/>
    <inductionLoop id="e1_B1B0_5" lane="B1B0_5" pos="-0.1" period="10" file="../outputs/e1_output.xml" friendlyPos="true"/>

    <inductionLoop id="e1_A0B0_1" lane="A0B0_1" pos="-0.1" period="10" file="../outputs/e1_output.xml" friendlyPos="true"/>
    <inductionLoop id="e1_A0B0_2" lane="A0B0_2" pos="-0.1" period="10" file="../outputs/e1_output.xml" friendlyPos="true"/>
    <inductionLoop id="e1_A0B0_3" lane="A0B0_3" pos="-0.1" period="10" file="../outputs/e1_output.xml" friendlyPos="true"/>
    <inductionLoop id="e1_A0B0_4" lane="A0B0_4" pos="-0.1" period="10" file="../outputs/e1_output.xml" friendlyPos="true"/>

    <inductionLoop id="e1_left1B0_1" lane="left1B0_1" pos="-0.1" period="10" file="../outputs/e1_output.xml" friendlyPos="true"/>
    <inductionLoop id="e1_left1B0_2" lane="left1B0_2" pos="-0.1" period="10" file="../outputs/e1_output.xml" friendlyPos="true"/>
    <inductionLoop id="e1_left1B0_3" lane="left1B0_3" pos="-0.1" period="10" file="../outputs/e1_output.xml" friendlyPos="true"/>
    <inductionLoop id="e1_left1B0_4" lane="left1B0_4" pos="-0.1" period="10" file="../outputs/e1_output.xml" friendlyPos="true"/>

    <inductionLoop id="e1_C1B1_1" lane="C1B1_1" pos="-0.1" period="10" file="../outputs/e1_output.xml" friendlyPos="true"/>
    <inductionLoop id="e1_C1B1_2" lane="C1B1_2" pos="-0.1" period="10" file="../outputs/e1_output.xml" friendlyPos="true"/>
    <inductionLoop id="e1_C1B1_3" lane="C1B1_3" pos="-0.1" period="10" file="../outputs/e1_output.xml" friendlyPos="true"/>
    <inductionLoop id="e1_C1B1_4" lane="C1B1_4" pos="-0.1" period="10" file="../outputs/e1_output.xml" friendlyPos="true"/>

    <inductionLoop id="e1_B2B1_1" lane="B2B1_1" pos="-0.1" period="10" file="../outputs/e1_output.xml" friendlyPos="true"/>
    <inductionLoop id="e1_B2B1_2" lane="B2B1_2" pos="-0.1" period="10" file="../outputs/e1_output.xml" friendlyPos="true"/>
    <inductionLoop id="e1_B2B1_3" lane="B2B1_3" pos="-0.1" period="10" file="../outputs/e1_output.xml" friendlyPos="true"/>
    <inductionLoop id="e1_B2B1_4" lane="B2B1_4" pos="-0.1" period="10" file="../outputs/e1_output.xml" friendlyPos="true"/>

    <inductionLoop id="e1_A1B1_1" lane="A1B1_1" pos="-0.1" period="10" file="../outputs/e1_output.xml" friendlyPos="true"/>
    <inductionLoop id="e1_A1B1_2" lane="A1B1_2" pos="-0.1" period="10" file="../outputs/e1_output.xml" friendlyPos="true"/>
    <inductionLoop id="e1_A1B1_3" lane="A1B1_3" pos="-0.1" period="10" file="../outputs/e1_output.xml" friendlyPos="true"/>
    <inductionLoop id="e1_A1B1_4" lane="A1B1_4" pos="-0.1" period="10" file="../outputs/e1_output.xml" friendlyPos="true"/>

    <inductionLoop id="e1_B0B1_1" lane="B0B1_1" pos="-0.1" period="10" file="../outputs/e1_output.xml" friendlyPos="true"/>
    <inductionLoop id="e1_B0B1_2" lane="B0B1_2" pos="-0.1" period="10" file="../outputs/e1_output.xml" friendlyPos="true"/>
    <inductionLoop id="e1_B0B1_3" lane="B0B1_3" pos="-0.1" period="10" file="../outputs/e1_output.xml" friendlyPos="true"/>
    <inductionLoop id="e1_B0B1_4" lane="B0B1_4" pos="-0.1" period="10" file="../outputs/e1_output.xml" friendlyPos="true"/>

    <inductionLoop id="e1_C2B2_1" lane="C2B2_1" pos="-0.1" period="10" file="../outputs/e1_output.xml" friendlyPos="true"/>
    <inductionLoop id="e1_C2B2_2" lane="C2B2_2" pos="-0.1" period="10" file="../outputs/e1_output.xml" friendlyPos="true"/>
    <inductionLoop id="e1_C2B2_3" lane="C2B2_3" pos="-0.1" period="10" file="../outputs/e1_output.xml" friendlyPos="true"/>
    <inductionLoop id="e1_C2B2_4" lane="C2B2_4" pos="-0.1" period="10" file="../outputs/e1_output.xml" friendlyPos="true"/>

    <inductionLoop id="e1_B3B2_1" lane="B3B2_1" pos="-0.1" period="10" file="../outputs/e1_output.xml" friendlyPos="true"/>
    <inductionLoop id="e1_B3B2_2" lane="B3B2_2" pos="-0.1" period="10" file="../outputs/e1_output.xml" friendlyPos="true"/>
    <inductionLoop id="e1_B3B2_3" lane="B3B2_3" pos="-0.1" period="10" file="../outputs/e1_output.xml" friendlyPos="true"/>
    <inductionLoop id="e1_B3B2_4" lane="B3B2_4" pos="-0.1" period="10" file="../outputs/e1_output.xml" friendlyPos="true"/>

    <inductionLoop id="e1_A2B2_1" lane="A2B2_1" pos="-0.1" period="10" file="../outputs/e1_output.xml" friendlyPos="true"/>
    <inductionLoop id="e1_A2B2_2" lane="A2B2_2" pos="-0.1" period="10" file="../outputs/e1_output.xml" friendlyPos="true"/>
    <inductionLoop id="e1_A2B2_3" lane="A2B2_3" pos="-0.1" period="10" file="../outputs/e1_output.xml" friendlyPos="true"/>
    <inductionLoop id="e1_A2B2_4" lane="A2B2_4" pos="-0.1" period="10" file="../outputs/e1_output.xml" friendlyPos="true"/>

    <inductionLoop id="e1_B1B2_1" lane="B1B2_1" pos="-0.1" period="10" file="../outputs/e1_output.xml" friendlyPos="true"/>
    <inductionLoop id="e1_B1B2_2" lane="B1B2_2" pos="-0.1" period="10" file="../outputs/e1_output.xml" friendlyPos="true"/>
    <inductionLoop id="e1_B1B2_3" lane="B1B2_3" pos="-0.1" period="10" file="../outputs/e1_output.xml" friendlyPos="true"/>
    <inductionLoop id="e1_B1B2_4" lane="B1B2_4" pos="-0.1" period="10" file="../outputs/e1_output.xml" friendlyPos="true"/>
    <inductionLoop id="e1_B1B2_5" lane="B1B2_5" pos="-0.1" period="10" file="../outputs/e1_output.xml" friendlyPos="true"/>

    <inductionLoop id="e1_C3B3_1" lane="C3B3_1" pos="-0.1" period="10" file="../outputs/e1_output.xml" friendlyPos="true"/>
    <inductionLoop id="e1_C3B3_2" lane="C3B3_2" pos="-0.1" period="10" file="../outputs/e1_output.xml" friendlyPos="true"/>
    <inductionLoop id="e1_C3B3_3" lane="C3B3_3" pos="-0.1" period="10" file="../outputs/e1_output.xml" friendlyPos="true"/>
    <inductionLoop id="e1_C3B3_4" lane="C3B3_4" pos="-0.1" period="10" file="../outputs/e1_output.xml" friendlyPos="true"/>

    <inductionLoop id="e1_right1B3_1" lane="right1B3_1" pos="-0.1" period="10" file="../outputs/e1_output.xml" friendlyPos="true"/>
    <inductionLoop id="e1_right1B3_2" lane="right1B3_2" pos="-0.1" period="10" file="../outputs/e1_output.xml" friendlyPos="true"/>
    <inductionLoop id="e1_right1B3_3" lane="right1B3_3" pos="-0.1" period="10" file="../outputs/e1_output.xml" friendlyPos="true"/>
    <inductionLoop id="e1_right1B3_4" lane="right1B3_4" pos="-0.1" period="10" file="../outputs/e1_output.xml" friendlyPos="true"/>

    <inductionLoop id="e1_A3B3_1" lane="A3B3_1" pos="-0.1" period="10" file="../outputs/e1_output.xml" friendlyPos="true"/>
    <inductionLoop id="e1_A3B3_2" lane="A3B3_2" pos="-0.1" period="10" file="../outputs/e1_output.xml" friendlyPos="true"/>
    <inductionLoop id="e1_A3B3_3" lane="A3B3_3" pos="-0.1" period="10" file="../outputs/e1_output.xml" friendlyPos="true"/>
    <inductionLoop id="e1_A3B3_4" lane="A3B3_4" pos="-0.1" period="10" file="../outputs/e1_output.xml" friendlyPos="true"/>

    <inductionLoop id="e1_B2B3_1" lane="B2B3_1" pos="-0.1" period="10" file="../outputs/e1_output.xml" friendlyPos="true"/>
    <inductionLoop id="e1_B2B3_2" lane="B2B3_2" pos="-0.1" period="10" file="../outputs/e1_output.xml" friendlyPos="true"/>
    <inductionLoop id="e1_B2B3_3" lane="B2B3_3" pos="-0.1" period="10" file="../outputs/e1_output.xml" friendlyPos="true"/>
    <inductionLoop id="e1_B2B3_4" lane="B2B3_4" pos="-0.1" period="10" file="../outputs/e1_output.xml" friendlyPos="true"/>

    <inductionLoop id="e1_top0C0_1" lane="top0C0_1" pos="-0.1" period="10" file="../outputs/e1_output.xml" friendlyPos="true"/>
    <inductionLoop id="e1_top0C0_2" lane="top0C0_2" pos="-0.1" period="10" file="../outputs/e1_output.xml" friendlyPos="true"/>
    <inductionLoop id="e1_top0C0_3" lane="top0C0_3" pos="-0.1" period="10" file="../outputs/e1_output.xml" friendlyPos="true"/>
    <inductionLoop id="e1_top0C0_4" lane="top0C0_4" pos="-0.1" period="10" file="../outputs/e1_output.xml" friendlyPos="true"/>
    <inductionLoop id="e1_top0C0_5" lane="top0C0_5" pos="-0.1" period="10" file="../outputs/e1_output.xml" friendlyPos="true"/>

    <inductionLoop id="e1_C1C0_1" lane="C1C0_1" pos="-0.1" period="10" file="../outputs/e1_output.xml" friendlyPos="true"/>
    <inductionLoop id="e1_C1C0_2" lane="C1C0_2" pos="-0.1" period="10" file="../outputs/e1_output.xml" friendlyPos="true"/>
    <inductionLoop id="e1_C1C0_3" lane="C1C0_3" pos="-0.1" period="10" file="../outputs/e1_output.xml" friendlyPos="true"/>
    <inductionLoop id="e1_C1C0_4" lane="C1C0_4" pos="-0.1" period="10" file="../outputs/e1_output.xml" friendlyPos="true"/>
    <inductionLoop id="e1_C1C0_5" lane="C1C0_5" pos="-0.1" period="10" file="../outputs/e1_output.xml" friendlyPos="true"/>
    <inductionLoop id="e1_C1C0_6" lane="C1C0_6" pos="-0.1" period="10" file="../outputs/e1_output.xml" friendlyPos="true"/>

    <inductionLoop id="e1_B0C0_1" lane="B0C0_1" pos="-0.1" period="10" file="../outputs/e1_output.xml" friendlyPos="true"/>
    <inductionLoop id="e1_B0C0_2" lane="B0C0_2" pos="-0.1" period="10" file="../outputs/e1_output.xml" friendlyPos="true"/>
    <inductionLoop id="e1_B0C0_3" lane="B0C0_3" pos="-0.1" period="10" file="../outputs/e1_output.xml" friendlyPos="true"/>
    <inductionLoop id="e1_B0C0_4" lane="B0C0_4" pos="-0.1" period="10" file="../outputs/e1_output.xml" friendlyPos="true"/>

    <inductionLoop id="e1_left2C0_1" lane="left2C0_1" pos="-0.1" period="10" file="../outputs/e1_output.xml" friendlyPos="true"/>
    <inductionLoop id="e1_left2C0_2" lane="left2C0_2" pos="-0.1" period="10" file="../outputs/e1_output.xml" friendlyPos="true"/>
    <inductionLoop id="e1_left2C0_3" lane="left2C0_3" pos="-0.1" period="10" file="../outputs/e1_output.xml" friendlyPos="true"/>
    <inductionLoop id="e1_left2C0_4" lane="left2C0_4" pos="-0.1" period="10" file="../outputs/e1_output.xml" friendlyPos="true"/>
    <inductionLoop id="e1_left2C0_5" lane="left2C0_5" pos="-0.1" period="10" file="../outputs/e1_output.xml" friendlyPos="true"/>

    <inductionLoop id="e1_top1C1_1" lane="top1C1_1" pos="-0.1" period="10" file="../outputs/e1_output.xml" friendlyPos="true"/>
    <inductionLoop id="e1_top1C1_2" lane="top1C1_2" pos="-0.1" period="10" file="../outputs/e1_output.xml" friendlyPos="true"/>
    <inductionLoop id="e1_top1C1_3" lane="top1C1_3" pos="-0.1" period="10" file="../outputs/e1_output.xml" friendlyPos="true"/>
    <inductionLoop id="e1_top1C1_4" lane="top1C1_4" pos="-0.1" period="10" file="../outputs/e1_output.xml" friendlyPos="true"/>

    <inductionLoop id="e1_C2C1_1" lane="C2C1_1" pos="-0.1" period="10" file="../outputs/e1_output.xml" friendlyPos="true"/>
    <inductionLoop id="e1_C2C1_2" lane="C2C1_2" pos="-0.1" period="10" file="../outputs/e1_output.xml" friendlyPos="true"/>
    <inductionLoop id="e1_C2C1_3" lane="C2C1_3" pos="-0.1" period="10" file="../outputs/e1_output.xml" friendlyPos="true"/>
    <inductionLoop id="e1_C2C1_4" lane="C2C1_4" pos="-0.1" period="10" file="../outputs/e1_output.xml" friendlyPos="true"/>
    <inductionLoop id="e1_C2C1_5" lane="C2C1_5" pos="-0.1" period="10" file="../outputs/e1_output.xml" friendlyPos="true"/>
    <inductionLoop id="e1_C2C1_6" lane="C2C1_6" pos="-0.1" period="10" file="../outputs/e1_output.xml" friendlyPos="true"/>

    <inductionLoop id="e1_B1C1_1" lane="B1C1_1" pos="-0.1" period="10" file="../outputs/e1_output.xml" friendlyPos="true"/>
    <inductionLoop id="e1_B1C1_2" lane="B1C1_2" pos="-0.1" period="10" file="../outputs/e1_output.xml" friendlyPos="true"/>
    <inductionLoop id="e1_B1C1_3" lane="B1C1_3" pos="-0.1" period="10" file="../outputs/e1_output.xml" friendlyPos="true"/>
    <inductionLoop id="e1_B1C1_4" lane="B1C1_4" pos="-0.1" period="10" file="../outputs/e1_output.xml" friendlyPos="true"/>

    <inductionLoop id="e1_C0C1_1" lane="C0C1_1" pos="-0.1" period="10" file="../outputs/e1_output.xml" friendlyPos="true"/>
    <inductionLoop id="e1_C0C1_2" lane="C0C1_2" pos="-0.1" period="10" file="../outputs/e1_output.xml" friendlyPos="true"/>
    <inductionLoop id="e1_C0C1_3" lane="C0C1_3" pos="-0.1" period="10" file="../outputs/e1_output.xml" friendlyPos="true"/>
    <inductionLoop id="e1_C0C1_4" lane="C0C1_4" pos="-0.1" period="10" file="../outputs/e1_output.xml" friendlyPos="true"/>
    <inductionLoop id="e1_C0C1_5" lane="C0C1_5" pos="-0.1" period="10" file="../outputs/e1_output.xml" friendlyPos="true"/>

    <inductionLoop id="e1_top2C2_1" lane="top2C2_1" pos="-0.1" period="10" file="../outputs/e1_output.xml" friendlyPos="true"/>
    <inductionLoop id="e1_top2C2_2" lane="top2C2_2" pos="-0.1" period="10" file="../outputs/e1_output.xml" friendlyPos="true"/>
    <inductionLoop id="e1_top2C2_3" lane="top2C2_3" pos="-0.1" period="10" file="../outputs/e1_output.xml" friendlyPos="true"/>
    <inductionLoop id="e1_top2C2_4" lane="top2C2_4" pos="-0.1" period="10" file="../outputs/e1_output.xml" friendlyPos="true"/>

    <inductionLoop id="e1_C3C2_1" lane="C3C2_1" pos="-0.1" period="10" file="../outputs/e1_output.xml" friendlyPos="true"/>
    <inductionLoop id="e1_C3C2_2" lane="C3C2_2" pos="-0.1" period="10" file="../outputs/e1_output.xml" friendlyPos="true"/>
    <inductionLoop id="e1_C3C2_3" lane="C3C2_3" pos="-0.1" period="10" file="../outputs/e1_output.xml" friendlyPos="true"/>
    <inductionLoop id="e1_C3C2_4" lane="C3C2_4" pos="-0.1" period="10" file="../outputs/e1_output.xml" friendlyPos="true"/>
    <inductionLoop id="e1_C3C2_5" lane="C3C2_5" pos="-0.1" period="10" file="../outputs/e1_output.xml" friendlyPos="true"/>
    <inductionLoop id="e1_C3C2_6" lane="C3C2_6" pos="-0.1" period="10" file="../outputs/e1_output.xml" friendlyPos="true"/>

    <inductionLoop id="e1_B2C2_1" lane="B2C2_1" pos="-0.1" period="10" file="../outputs/e1_output.xml" friendlyPos="true"/>
    <inductionLoop id="e1_B2C2_2" lane="B2C2_2" pos="-0.1" period="10" file="../outputs/e1_output.xml" friendlyPos="true"/>
    <inductionLoop id="e1_B2C2_3" lane="B2C2_3" pos="-0.1" period="10" file="../outputs/e1_output.xml" friendlyPos="true"/>
    <inductionLoop id="e1_B2C2_4" lane="B2C2_4" pos="-0.1" period="10" file="../outputs/e1_output.xml" friendlyPos="true"/>

    <inductionLoop id="e1_C1C2_1" lane="C1C2_1" pos="-0.1" period="10" file="../outputs/e1_output.xml" friendlyPos="true"/>
    <inductionLoop id="e1_C1C2_2" lane="C1C2_2" pos="-0.1" period="10" file="../outputs/e1_output.xml" friendlyPos="true"/>
    <inductionLoop id="e1_C1C2_3" lane="C1C2_3" pos="-0.1" period="10" file="../outputs/e1_output.xml" friendlyPos="true"/>
    <inductionLoop id="e1_C1C2_4" lane="C1C2_4" pos="-0.1" period="10" file="../outputs/e1_output.xml" friendlyPos="true"/>
    <inductionLoop id="e1_C1C2_5" lane="C1C2_5" pos="-0.1" period="10" file="../outputs/e1_output.xml" friendlyPos="true"/>

    <inductionLoop id="e1_top3C3_1" lane="top3C3_1" pos="-0.1" period="10" file="../outputs/e1_output.xml" friendlyPos="true"/>
    <inductionLoop id="e1_top3C3_2" lane="top3C3_2" pos="-0.1" period="10" file="../outputs/e1_output.xml" friendlyPos="true"/>
    <inductionLoop id="e1_top3C3_3" lane="top3C3_3" pos="-0.1" period="10" file="../outputs/e1_output.xml" friendlyPos="true"/>
    <inductionLoop id="e1_top3C3_4" lane="top3C3_4" pos="-0.1" period="10" file="../outputs/e1_output.xml" friendlyPos="true"/>
    <inductionLoop id="e1_top3C3_5" lane="top3C3_5" pos="-0.1" period="10" file="../outputs/e1_output.xml" friendlyPos="true"/>

    <inductionLoop id="e1_right2C3_1" lane="right2C3_1" pos="-0.1" period="10" file="../outputs/e1_output.xml" friendlyPos="true"/>
    <inductionLoop id="e1_right2C3_2" lane="right2C3_2" pos="-0.1" period="10" file="../outputs/e1_output.xml" friendlyPos="true"/>
    <inductionLoop id="e1_right2C3_3" lane="right2C3_3" pos="-0.1" period="10" file="../outputs/e1_output.xml" friendlyPos="true"/>
    <inductionLoop id="e1_right2C3_4" lane="right2C3_4" pos="-0.1" period="10" file="../outputs/e1_output.xml" friendlyPos="true"/>

    <inductionLoop id="e1_B3C3_1" lane="B3C3_1" pos="-0.1" period="10" file="../outputs/e1_output.xml" friendlyPos="true"/>
    <inductionLoop id="e1_B3C3_2" lane="B3C3_2" pos="-0.1" period="10" file="../outputs/e1_output.xml" friendlyPos="true"/>
    <inductionLoop id="e1_B3C3_3" lane="B3C3_3" pos="-0.1" period="10" file="../outputs/e1_output.xml" friendlyPos="true"/>
    <inductionLoop id="e1_B3C3_4" lane="B3C3_4" pos="-0.1" period="10" file="../outputs/e1_output.xml" friendlyPos="true"/>

    <inductionLoop id="e1_C2C3_1" lane="C2C3_1" pos="-0.1" period="10" file="../outputs/e1_output.xml" friendlyPos="true"/>
    <inductionLoop id="e1_C2C3_2" lane="C2C3_2" pos="-0.1" period="10" file="../outputs/e1_output.xml" friendlyPos="true"/>
    <inductionLoop id="e1_C2C3_3" lane="C2C3_3" pos="-0.1" period="10" file="../outputs/e1_output.xml" friendlyPos="true"/>
    <inductionLoop id="e1_C2C3_4" lane="C2C3_4" pos="-0.1" period="10" file="../outputs/e1_output.xml" friendlyPos="true"/>
    <inductionLoop id="e1_C2C3_5" lane="C2C3_5" pos="-0.1" period="10" file="../outputs/e1_output.xml" friendlyPos="true"/>

</additional>
