<?xml version="1.0" encoding="UTF-8"?>

<!-- generated on 2026-04-14T09:15:03.813085+08:00 by Eclipse SUMO jtrrouter 1.25.0
<jtrrouterConfiguration xmlns:xsi="http://www.w3.org/2001/XMLSchema-instance" xsi:noNamespaceSchemaLocation="http://sumo.dlr.de/xsd/jtrrouterConfiguration.xsd">

    <input>
        <net-file value="network/sim.net.xml"/>
        <route-files value="flows/sedan.flow.xml"/>
        <turn-ratio-files value="turn.ratio.xml"/>
    </input>

    <output>
        <output-file value="routes/sedan.rou.xml"/>
    </output>

    <processing>
        <accept-all-destinations value="true"/>
    </processing>

    <time>
        <begin value="0"/>
        <end value="3600"/>
    </time>

    <random_number>
        <seed value="1"/>
    </random_number>

</jtrrouterConfiguration>
-->

<routes xmlns:xsi="http://www.w3.org/2001/XMLSchema-instance" xsi:noNamespaceSchemaLocation="http://sumo.dlr.de/xsd/routes_file.xsd">
    <vType id="sedan" length="4.50" speedFactor="normc(1.00,0.10,0.20,2.00)" vClass="passenger" width="1.80" height="1.50" color="204,204,204" accel="2.6" decel="4.5" sigma="0.5"/>
    <vehicle id="sedan_bottom5A5.0" type="sedan" depart="0.00">
        <route edges="bottom5A5 A5B5 B5B4 B4A4 A4bottom4"/>
    </vehicle>
    <vehicle id="sedan_right1B7.0" type="sedan" depart="0.00">
        <route edges="right1B7 B7A7 A7right0"/>
    </vehicle>
    <vehicle id="sedan_top6G6.0" type="sedan" depart="0.00">
        <route edges="top6G6 G6G7 G7F7 F7right5"/>
    </vehicle>
    <vehicle id="sedan_bottom1A1.0" type="sedan" depart="3.00">
        <route edges="bottom1A1 A1B1 B1C1 C1D1 D1E1 E1F1 F1F2 F2F3 F3G3 G3G4 G4G5 G5top5"/>
    </vehicle>
    <vehicle id="sedan_bottom3A3.0" type="sedan" depart="3.00">
        <route edges="bottom3A3 A3B3 B3B2 B2A2 A2A3 A3A4 A4A5 A5B5 B5C5 C5D5 D5E5 E5F5 F5G5 G5G4 G4F4 F4F5 F5E5 E5D5 D5C5 C5C4 C4C3 C3B3 B3A3 A3bottom3"/>
    </vehicle>
    <vehicle id="sedan_left2C0.0" type="sedan" depart="3.00">
        <route edges="left2C0 C0C1 C1C2 C2C3 C3B3 B3B4 B4B5 B5C5 C5C6 C6C7 C7right2"/>
    </vehicle>
    <vehicle id="sedan_bottom0A0.0" type="sedan" depart="4.00">
        <route edges="bottom0A0 A0left0"/>
    </vehicle>
    <vehicle id="sedan_bottom4A4.0" type="sedan" depart="4.00">
        <route edges="bottom4A4 A4A3 A3A2 A2bottom2"/>
    </vehicle>
    <vehicle id="sedan_bottom6A6.0" type="sedan" depart="4.00">
        <route edges="bottom6A6 A6B6 B6C6 C6C7 C7D7 D7E7 E7right4"/>
    </vehicle>
    <vehicle id="sedan_left1B0.0" type="sedan" depart="4.00">
        <route edges="left1B0 B0C0 C0left2"/>
    </vehicle>
    <vehicle id="sedan_left3D0.0" type="sedan" depart="4.00">
        <route edges="left3D0 D0E0 E0F0 F0G0 G0left6"/>
    </vehicle>
    <vehicle id="sedan_top2G2.0" type="sedan" depart="4.00">
        <route edges="top2G2 G2G3 G3G4 G4top4"/>
    </vehicle>
    <vehicle id="sedan_top7G7.0" type="sedan" depart="4.00">
        <route edges="top7G7 G7right6"/>
    </vehicle>
    <vehicle id="sedan_bottom2A2.0" type="sedan" depart="5.00">
        <route edges="bottom2A2 A2B2 B2B1 B1B0 B0left1"/>
    </vehicle>
    <vehicle id="sedan_top0G0.0" type="sedan" depart="5.00">
        <route edges="top0G0 G0left6"/>
    </vehicle>
    <vehicle id="sedan_top4G4.0" type="sedan" depart="6.00">
        <route edges="top4G4 G4F4 F4F3 F3G3 G3G4 G4top4"/>
    </vehicle>
    <vehicle id="sedan_bottom7A7.0" type="sedan" depart="7.00">
        <route edges="bottom7A7 A7B7 B7B6 B6C6 C6D6 D6D5 D5E5 E5F5 F5G5 G5top5"/>
    </vehicle>
    <vehicle id="sedan_left1B0.1" type="sedan" depart="7.00">
        <route edges="left1B0 B0A0 A0bottom0"/>
    </vehicle>
    <vehicle id="sedan_right0A7.0" type="sedan" depart="8.00">
        <route edges="right0A7 A7A6 A6bottom6"/>
    </vehicle>
    <vehicle id="sedan_right2C7.0" type="sedan" depart="8.00">
        <route edges="right2C7 C7C6 C6C5 C5B5 B5B4 B4A4 A4bottom4"/>
    </vehicle>
    <vehicle id="sedan_left1B0.2" type="sedan" depart="9.00">
        <route edges="left1B0 B0B1 B1B2 B2B3 B3B4 B4B5 B5C5 C5C6 C6C7 C7right2"/>
    </vehicle>
    <vehicle id="sedan_right6G7.0" type="sedan" depart="9.00">
        <route edges="right6G7 G7G6 G6top6"/>
    </vehicle>
    <vehicle id="sedan_top2G2.1" type="sedan" depart="9.00">
        <route edges="top2G2 G2F2 F2E2 E2D2 D2D3 D3D4 D4D5 D5D6 D6D7 D7right3"/>
    </vehicle>
    <vehicle id="sedan_top7G7.1" type="sedan" depart="9.00">
        <route edges="top7G7 G7G6 G6F6 F6E6 E6E7 E7right4"/>
    </vehicle>
    <vehicle id="sedan_bottom4A4.1" type="sedan" depart="11.00">
        <route edges="bottom4A4 A4A5 A5B5 B5C5 C5D5 D5D6 D6D7 D7right3"/>
    </vehicle>
    <vehicle id="sedan_bottom7A7.1" type="sedan" depart="11.00">
        <route edges="bottom7A7 A7B7 B7C7 C7D7 D7D6 D6D5 D5C5 C5B5 B5B4 B4A4 A4A5 A5A6 A6A7 A7right0"/>
    </vehicle>
    <vehicle id="sedan_right0A7.1" type="sedan" depart="11.00">
        <route edges="right0A7 A7A6 A6A5 A5A4 A4bottom4"/>
    </vehicle>
    <vehicle id="sedan_right5F7.0" type="sedan" depart="11.00">
        <route edges="right5F7 F7G7 G7top7"/>
    </vehicle>
    <vehicle id="sedan_bottom1A1.1" type="sedan" depart="12.00">
        <route edges="bottom1A1 A1B1 B1C1 C1C0 C0left2"/>
    </vehicle>
    <vehicle id="sedan_left2C0.1" type="sedan" depart="12.00">
        <route edges="left2C0 C0C1 C1C2 C2D2 D2E2 E2F2 F2F1 F1G1 G1G0 G0left6"/>
    </vehicle>
    <vehicle id="sedan_right3D7.0" type="sedan" depart="12.00">
        <route edges="right3D7 D7E7 E7F7 F7G7 G7top7"/>
    </vehicle>
    <vehicle id="sedan_bottom2A2.1" type="sedan" depart="13.00">
        <route edges="bottom2A2 A2A3 A3A4 A4A5 A5B5 B5C5 C5D5 D5D6 D6D7 D7right3"/>
    </vehicle>
    <vehicle id="sedan_right6G7.1" type="sedan" depart="13.00">
        <route edges="right6G7 G7G6 G6G5 G5G4 G4F4 F4F5 F5G5 G5G6 G6top6"/>
    </vehicle>
    <vehicle id="sedan_left1B0.3" type="sedan" depart="14.00">
        <route edges="left1B0 B0A0 A0bottom0"/>
    </vehicle>
    <vehicle id="sedan_top6G6.1" type="sedan" depart="14.00">
        <route edges="top6G6 G6F6 F6E6 E6D6 D6C6 C6B6 B6A6 A6A7 A7right0"/>
    </vehicle>
    <vehicle id="sedan_bottom6A6.1" type="sedan" depart="15.00">
        <route edges="bottom6A6 A6B6 B6C6 C6D6 D6D5 D5C5 C5B5 B5A5 A5bottom5"/>
    </vehicle>
    <vehicle id="sedan_left3D0.1" type="sedan" depart="15.00">
        <route edges="left3D0 D0C0 C0B0 B0A0 A0A1 A1A2 A2A3 A3A4 A4B4 B4C4 C4D4 D4D5 D5D6 D6D7 D7right3"/>
    </vehicle>
    <vehicle id="sedan_right0A7.2" type="sedan" depart="15.00">
        <route edges="right0A7 A7A6 A6A5 A5B5 B5C5 C5D5 D5D6 D6E6 E6F6 F6F7 F7G7 G7G6 G6G5 G5F5 F5F4 F4G4 G4G3 G3G2 G2top2"/>
    </vehicle>
    <vehicle id="sedan_top4G4.1" type="sedan" depart="15.00">
        <route edges="top4G4 G4F4 F4F5 F5G5 G5G4 G4G3 G3G2 G2G1 G1top1"/>
    </vehicle>
    <vehicle id="sedan_bottom4A4.2" type="sedan" depart="16.00">
        <route edges="bottom4A4 A4B4 B4C4 C4D4 D4E4 E4F4 F4F3 F3F2 F2G2 G2G3 G3G4 G4F4 F4F5 F5G5 G5top5"/>
    </vehicle>
    <vehicle id="sedan_left2C0.2" type="sedan" depart="16.00">
        <route edges="left2C0 C0C1 C1D1 D1D2 D2D3 D3D4 D4D5 D5D6 D6C6 C6C7 C7right2"/>
    </vehicle>
    <vehicle id="sedan_left6G0.0" type="sedan" depart="16.00">
        <route edges="left6G0 G0F0 F0E0 E0D0 D0left3"/>
    </vehicle>
    <vehicle id="sedan_right1B7.1" type="sedan" depart="16.00">
        <route edges="right1B7 B7B6 B6C6 C6D6 D6E6 E6E7 E7right4"/>
    </vehicle>
    <vehicle id="sedan_top7G7.2" type="sedan" depart="16.00">
        <route edges="top7G7 G7F7 F7right5"/>
    </vehicle>
    <vehicle id="sedan_left1B0.4" type="sedan" depart="18.00">
        <route edges="left1B0 B0C0 C0D0 D0left3"/>
    </vehicle>
    <vehicle id="sedan_right1B7.2" type="sedan" depart="18.00">
        <route edges="right1B7 B7A7 A7right0"/>
    </vehicle>
    <vehicle id="sedan_top6G6.2" type="sedan" depart="18.00">
        <route edges="top6G6 G6G7 G7right6"/>
    </vehicle>
    <vehicle id="sedan_bottom1A1.2" type="sedan" depart="19.00">
        <route edges="bottom1A1 A1A2 A2B2 B2B1 B1B0 B0left1"/>
    </vehicle>
    <vehicle id="sedan_left0A0.0" type="sedan" depart="19.00">
        <route edges="left0A0 A0A1 A1A2 A2A3 A3A4 A4A5 A5A6 A6A7 A7B7 B7C7 C7D7 D7D6 D6C6 C6C7 C7right2"/>
    </vehicle>
    <vehicle id="sedan_top2G2.2" type="sedan" depart="19.00">
        <route edges="top2G2 G2G3 G3G4 G4G5 G5F5 F5F4 F4G4 G4top4"/>
    </vehicle>
    <vehicle id="sedan_top3G3.0" type="sedan" depart="19.00">
        <route edges="top3G3 G3G2 G2G1 G1F1 F1F2 F2E2 E2D2 D2C2 C2C1 C1C0 C0left2"/>
    </vehicle>
    <vehicle id="sedan_top4G4.2" type="sedan" depart="19.00">
        <route edges="top4G4 G4F4 F4F5 F5G5 G5G6 G6top6"/>
    </vehicle>
    <vehicle id="sedan_left0A0.1" type="sedan" depart="20.00">
        <route edges="left0A0 A0A1 A1A2 A2A3 A3B3 B3C3 C3C2 C2C1 C1D1 D1E1 E1F1 F1G1 G1top1"/>
    </vehicle>
    <vehicle id="sedan_left1B0.5" type="sedan" depart="21.00">
        <route edges="left1B0 B0B1 B1B2 B2A2 A2A3 A3A4 A4A5 A5A6 A6A7 A7right0"/>
    </vehicle>
    <vehicle id="sedan_left5F0.0" type="sedan" depart="21.00">
        <route edges="left5F0 F0F1 F1G1 G1G0 G0left6"/>
    </vehicle>
    <vehicle id="sedan_top7G7.3" type="sedan" depart="21.00">
        <route edges="top7G7 G7F7 F7E7 E7D7 D7C7 C7B7 B7B6 B6A6 A6A7 A7B7 B7C7 C7D7 D7D6 D6D5 D5C5 C5B5 B5A5 A5bottom5"/>
    </vehicle>
    <vehicle id="sedan_right4E7.0" type="sedan" depart="22.00">
        <route edges="right4E7 E7E6 E6E5 E5D5 D5C5 C5B5 B5A5 A5bottom5"/>
    </vehicle>
    <vehicle id="sedan_top7G7.4" type="sedan" depart="22.00">
        <route edges="top7G7 G7F7 F7right5"/>
    </vehicle>
    <vehicle id="sedan_bottom2A2.2" type="sedan" depart="23.00">
        <route edges="bottom2A2 A2A3 A3A4 A4A5 A5bottom5"/>
    </vehicle>
    <vehicle id="sedan_bottom4A4.3" type="sedan" depart="23.00">
        <route edges="bottom4A4 A4B4 B4C4 C4D4 D4E4 E4E3 E3E2 E2F2 F2F1 F1F0 F0G0 G0top0"/>
    </vehicle>
    <vehicle id="sedan_left3D0.2" type="sedan" depart="23.00">
        <route edges="left3D0 D0D1 D1D2 D2E2 E2F2 F2G2 G2G1 G1F1 F1E1 E1E0 E0F0 F0left5"/>
    </vehicle>
    <vehicle id="sedan_bottom5A5.1" type="sedan" depart="24.00">
        <route edges="bottom5A5 A5A4 A4bottom4"/>
    </vehicle>
    <vehicle id="sedan_left4E0.0" type="sedan" depart="24.00">
        <route edges="left4E0 E0E1 E1D1 D1D0 D0C0 C0B0 B0A0 A0left0"/>
    </vehicle>
    <vehicle id="sedan_bottom6A6.2" type="sedan" depart="25.00">
        <route edges="bottom6A6 A6B6 B6B7 B7right1"/>
    </vehicle>
    <vehicle id="sedan_left3D0.3" type="sedan" depart="25.00">
        <route edges="left3D0 D0D1 D1E1 E1E0 E0left4"/>
    </vehicle>
    <vehicle id="sedan_right0A7.3" type="sedan" depart="25.00">
        <route edges="right0A7 A7A6 A6bottom6"/>
    </vehicle>
    <vehicle id="sedan_top6G6.3" type="sedan" depart="25.00">
        <route edges="top6G6 G6F6 F6E6 E6D6 D6C6 C6C7 C7D7 D7E7 E7F7 F7G7 G7top7"/>
    </vehicle>
    <vehicle id="sedan_top6G6.4" type="sedan" depart="26.00">
        <route edges="top6G6 G6F6 F6E6 E6D6 D6C6 C6B6 B6B7 B7right1"/>
    </vehicle>
    <vehicle id="sedan_bottom2A2.3" type="sedan" depart="27.00">
        <route edges="bottom2A2 A2B2 B2B1 B1B0 B0left1"/>
    </vehicle>
    <vehicle id="sedan_bottom5A5.2" type="sedan" depart="27.00">
        <route edges="bottom5A5 A5B5 B5B4 B4C4 C4C5 C5C6 C6D6 D6E6 E6F6 F6F7 F7right5"/>
    </vehicle>
    <vehicle id="sedan_bottom6A6.3" type="sedan" depart="27.00">
        <route edges="bottom6A6 A6B6 B6C6 C6D6 D6D5 D5E5 E5F5 F5G5 G5G4 G4G3 G3G2 G2F2 F2E2 E2D2 D2C2 C2C1 C1C0 C0B0 B0A0 A0A1 A1A2 A2A3 A3A4 A4A5 A5A6 A6A7 A7B7 B7right1"/>
    </vehicle>
    <vehicle id="sedan_left5F0.1" type="sedan" depart="27.00">
        <route edges="left5F0 F0F1 F1F2 F2F3 F3E3 E3D3 D3C3 C3B3 B3A3 A3bottom3"/>
    </vehicle>
    <vehicle id="sedan_bottom0A0.1" type="sedan" depart="28.00">
        <route edges="bottom0A0 A0left0"/>
    </vehicle>
    <vehicle id="sedan_bottom1A1.3" type="sedan" depart="28.00">
        <route edges="bottom1A1 A1B1 B1B2 B2B3 B3B4 B4B5 B5A5 A5bottom5"/>
    </vehicle>
    <vehicle id="sedan_left2C0.3" type="sedan" depart="28.00">
        <route edges="left2C0 C0C1 C1C2 C2D2 D2E2 E2F2 F2G2 G2top2"/>
    </vehicle>
    <vehicle id="sedan_right2C7.1" type="sedan" depart="28.00">
        <route edges="right2C7 C7C6 C6C5 C5C4 C4C3 C3C2 C2D2 D2D1 D1D0 D0left3"/>
    </vehicle>
    <vehicle id="sedan_right5F7.1" type="sedan" depart="28.00">
        <route edges="right5F7 F7G7 G7top7"/>
    </vehicle>
    <vehicle id="sedan_right1B7.3" type="sedan" depart="30.00">
        <route edges="right1B7 B7B6 B6C6 C6D6 D6E6 E6F6 F6G6 G6top6"/>
    </vehicle>
    <vehicle id="sedan_right4E7.1" type="sedan" depart="30.00">
        <route edges="right4E7 E7E6 E6F6 F6F7 F7G7 G7top7"/>
    </vehicle>
    <vehicle id="sedan_bottom2A2.4" type="sedan" depart="31.00">
        <route edges="bottom2A2 A2B2 B2B1 B1C1 C1D1 D1E1 E1F1 F1F2 F2F3 F3G3 G3G4 G4G5 G5G6 G6G7 G7F7 F7E7 E7right4"/>
    </vehicle>
    <vehicle id="sedan_left2C0.4" type="sedan" depart="31.00">
        <route edges="left2C0 C0B0 B0A0 A0bottom0"/>
    </vehicle>
    <vehicle id="sedan_top2G2.3" type="sedan" depart="31.00">
        <route edges="top2G2 G2F2 F2F1 F1F0 F0left5"/>
    </vehicle>
    <vehicle id="sedan_bottom2A2.5" type="sedan" depart="32.00">
        <route edges="bottom2A2 A2A1 A1bottom1"/>
    </vehicle>
    <vehicle id="sedan_left3D0.4" type="sedan" depart="32.00">
        <route edges="left3D0 D0C0 C0B0 B0A0 A0bottom0"/>
    </vehicle>
    <vehicle id="sedan_right0A7.4" type="sedan" depart="32.00">
        <route edges="right0A7 A7bottom7"/>
    </vehicle>
    <vehicle id="sedan_bottom3A3.1" type="sedan" depart="33.00">
        <route edges="bottom3A3 A3A2 A2A1 A1B1 B1B0 B0left1"/>
    </vehicle>
    <vehicle id="sedan_top0G0.1" type="sedan" depart="34.00">
        <route edges="top0G0 G0left6"/>
    </vehicle>
    <vehicle id="sedan_top3G3.1" type="sedan" depart="34.00">
        <route edges="top3G3 G3G4 G4top4"/>
    </vehicle>
    <vehicle id="sedan_bottom1A1.4" type="sedan" depart="35.00">
        <route edges="bottom1A1 A1A2 A2B2 B2B3 B3B4 B4B5 B5C5 C5D5 D5E5 E5F5 F5G5 G5G4 G4G3 G3F3 F3F2 F2F1 F1F0 F0G0 G0top0"/>
    </vehicle>
    <vehicle id="sedan_right6G7.2" type="sedan" depart="35.00">
        <route edges="right6G7 G7G6 G6G5 G5top5"/>
    </vehicle>
    <vehicle id="sedan_top0G0.2" type="sedan" depart="35.00">
        <route edges="top0G0 G0F0 F0F1 F1F2 F2F3 F3F4 F4F5 F5G5 G5top5"/>
    </vehicle>
    <vehicle id="sedan_left2C0.5" type="sedan" depart="36.00">
        <route edges="left2C0 C0C1 C1C2 C2C3 C3B3 B3A3 A3A4 A4A5 A5bottom5"/>
    </vehicle>
    <vehicle id="sedan_left6G0.1" type="sedan" depart="36.00">
        <route edges="left6G0 G0G1 G1G2 G2top2"/>
    </vehicle>
    <vehicle id="sedan_bottom2A2.6" type="sedan" depart="38.00">
        <route edges="bottom2A2 A2B2 B2B1 B1C1 C1C2 C2C3 C3C4 C4C5 C5C6 C6C7 C7D7 D7D6 D6D5 D5E5 E5F5 F5G5 G5top5"/>
    </vehicle>
    <vehicle id="sedan_left3D0.5" type="sedan" depart="38.00">
        <route edges="left3D0 D0D1 D1D2 D2C2 C2C3 C3B3 B3A3 A3A4 A4A5 A5A6 A6A7 A7right0"/>
    </vehicle>
    <vehicle id="sedan_left6G0.2" type="sedan" depart="38.00">
        <route edges="left6G0 G0G1 G1top1"/>
    </vehicle>
    <vehicle id="sedan_bottom3A3.2" type="sedan" depart="39.00">
        <route edges="bottom3A3 A3B3 B3B4 B4B5 B5C5 C5C4 C4C3 C3C2 C2C1 C1B1 B1A1 A1bottom1"/>
    </vehicle>
    <vehicle id="sedan_bottom4A4.4" type="sedan" depart="39.00">
        <route edges="bottom4A4 A4B4 B4C4 C4D4 D4E4 E4E3 E3E2 E2D2 D2D3 D3D4 D4D5 D5D6 D6D7 D7right3"/>
    </vehicle>
    <vehicle id="sedan_right4E7.2" type="sedan" depart="39.00">
        <route edges="right4E7 E7E6 E6F6 F6G6 G6top6"/>
    </vehicle>
    <vehicle id="sedan_top1G1.0" type="sedan" depart="39.00">
        <route edges="top1G1 G1F1 F1E1 E1D1 D1C1 C1C2 C2C3 C3C4 C4C5 C5C6 C6B6 B6B7 B7right1"/>
    </vehicle>
    <vehicle id="sedan_top2G2.4" type="sedan" depart="39.00">
        <route edges="top2G2 G2F2 F2E2 E2D2 D2C2 C2C3 C3C4 C4C5 C5C6 C6D6 D6E6 E6F6 F6F7 F7right5"/>
    </vehicle>
    <vehicle id="sedan_bottom1A1.5" type="sedan" depart="40.00">
        <route edges="bottom1A1 A1A2 A2A3 A3A4 A4A5 A5A6 A6bottom6"/>
    </vehicle>
    <vehicle id="sedan_left6G0.3" type="sedan" depart="40.00">
        <route edges="left6G0 G0top0"/>
    </vehicle>
    <vehicle id="sedan_top2G2.5" type="sedan" depart="40.00">
        <route edges="top2G2 G2G3 G3F3 F3E3 E3E2 E2F2 F2G2 G2top2"/>
    </vehicle>
    <vehicle id="sedan_right1B7.4" type="sedan" depart="41.00">
        <route edges="right1B7 B7C7 C7D7 D7D6 D6D5 D5E5 E5F5 F5G5 G5top5"/>
    </vehicle>
    <vehicle id="sedan_top7G7.5" type="sedan" depart="41.00">
        <route edges="top7G7 G7right6"/>
    </vehicle>
    <vehicle id="sedan_bottom1A1.6" type="sedan" depart="42.00">
        <route edges="bottom1A1 A1B1 B1B2 B2A2 A2bottom2"/>
    </vehicle>
    <vehicle id="sedan_bottom4A4.5" type="sedan" depart="42.00">
        <route edges="bottom4A4 A4B4 B4B3 B3B2 B2B1 B1B0 B0A0 A0A1 A1B1 B1C1 C1D1 D1E1 E1F1 F1G1 G1top1"/>
    </vehicle>
    <vehicle id="sedan_left3D0.6" type="sedan" depart="42.00">
        <route edges="left3D0 D0E0 E0F0 F0F1 F1F2 F2E2 E2D2 D2D3 D3D4 D4D5 D5C5 C5B5 B5A5 A5A4 A4bottom4"/>
    </vehicle>
    <vehicle id="sedan_right2C7.2" type="sedan" depart="42.00">
        <route edges="right2C7 C7B7 B7A7 A7A6 A6A5 A5A4 A4bottom4"/>
    </vehicle>
    <vehicle id="sedan_top1G1.1" type="sedan" depart="42.00">
        <route edges="top1G1 G1F1 F1F2 F2G2 G2G3 G3top3"/>
    </vehicle>
    <vehicle id="sedan_top2G2.6" type="sedan" depart="42.00">
        <route edges="top2G2 G2F2 F2F3 F3F4 F4F5 F5G5 G5top5"/>
    </vehicle>
    <vehicle id="sedan_left0A0.2" type="sedan" depart="43.00">
        <route edges="left0A0 A0A1 A1A2 A2B2 B2B1 B1C1 C1C0 C0D0 D0E0 E0F0 F0left5"/>
    </vehicle>
    <vehicle id="sedan_bottom1A1.7" type="sedan" depart="44.00">
        <route edges="bottom1A1 A1A0 A0left0"/>
    </vehicle>
    <vehicle id="sedan_bottom4A4.6" type="sedan" depart="44.00">
        <route edges="bottom4A4 A4B4 B4B5 B5C5 C5D5 D5D6 D6D7 D7right3"/>
    </vehicle>
    <vehicle id="sedan_left6G0.4" type="sedan" depart="44.00">
        <route edges="left6G0 G0F0 F0E0 E0D0 D0C0 C0C1 C1B1 B1A1 A1A2 A2bottom2"/>
    </vehicle>
    <vehicle id="sedan_bottom6A6.4" type="sedan" depart="45.00">
        <route edges="bottom6A6 A6B6 B6C6 C6D6 D6E6 E6E7 E7D7 D7C7 C7B7 B7A7 A7bottom7"/>
    </vehicle>
    <vehicle id="sedan_bottom4A4.7" type="sedan" depart="46.00">
        <route edges="bottom4A4 A4B4 B4C4 C4C3 C3B3 B3A3 A3bottom3"/>
    </vehicle>
    <vehicle id="sedan_right3D7.1" type="sedan" depart="46.00">
        <route edges="right3D7 D7D6 D6D5 D5C5 C5B5 B5A5 A5bottom5"/>
    </vehicle>
    <vehicle id="sedan_left1B0.6" type="sedan" depart="47.00">
        <route edges="left1B0 B0B1 B1C1 C1D1 D1D2 D2D3 D3D4 D4D5 D5D6 D6C6 C6C7 C7B7 B7right1"/>
    </vehicle>
    <vehicle id="sedan_left3D0.7" type="sedan" depart="47.00">
        <route edges="left3D0 D0C0 C0B0 B0A0 A0left0"/>
    </vehicle>
    <vehicle id="sedan_top5G5.0" type="sedan" depart="48.00">
        <route edges="top5G5 G5G4 G4G3 G3G2 G2top2"/>
    </vehicle>
    <vehicle id="sedan_top6G6.5" type="sedan" depart="48.00">
        <route edges="top6G6 G6G7 G7right6"/>
    </vehicle>
    <vehicle id="sedan_bottom5A5.3" type="sedan" depart="50.00">
        <route edges="bottom5A5 A5B5 B5B4 B4B3 B3A3 A3bottom3"/>
    </vehicle>
    <vehicle id="sedan_left2C0.6" type="sedan" depart="50.00">
        <route edges="left2C0 C0C1 C1C2 C2C3 C3C4 C4C5 C5C6 C6C7 C7right2"/>
    </vehicle>
    <vehicle id="sedan_left5F0.2" type="sedan" depart="50.00">
        <route edges="left5F0 F0F1 F1E1 E1D1 D1D2 D2D3 D3D4 D4D5 D5D6 D6D7 D7E7 E7F7 F7G7 G7top7"/>
    </vehicle>
    <vehicle id="sedan_right4E7.3" type="sedan" depart="50.00">
        <route edges="right4E7 E7E6 E6E5 E5E4 E4E3 E3E2 E2D2 D2D1 D1D0 D0left3"/>
    </vehicle>
    <vehicle id="sedan_top0G0.3" type="sedan" depart="50.00">
        <route edges="top0G0 G0F0 F0F1 F1F2 F2F3 F3F4 F4G4 G4G5 G5F5 F5F4 F4F3 F3G3 G3G2 G2F2 F2E2 E2D2 D2C2 C2C1 C1B1 B1B0 B0A0 A0A1 A1A2 A2B2 B2B1 B1A1 A1bottom1"/>
    </vehicle>
    <vehicle id="sedan_left5F0.3" type="sedan" depart="51.00">
        <route edges="left5F0 F0G0 G0top0"/>
    </vehicle>
    <vehicle id="sedan_right5F7.2" type="sedan" depart="51.00">
        <route edges="right5F7 F7F6 F6E6 E6E5 E5E4 E4E3 E3E2 E2D2 D2D3 D3C3 C3B3 B3B2 B2B1 B1B0 B0left1"/>
    </vehicle>
    <vehicle id="sedan_top0G0.4" type="sedan" depart="51.00">
        <route edges="top0G0 G0G1 G1top1"/>
    </vehicle>
    <vehicle id="sedan_top4G4.3" type="sedan" depart="51.00">
        <route edges="top4G4 G4F4 F4F3 F3F2 F2F1 F1F0 F0E0 E0D0 D0C0 C0C1 C1D1 D1D0 D0left3"/>
    </vehicle>
    <vehicle id="sedan_top5G5.1" type="sedan" depart="51.00">
        <route edges="top5G5 G5F5 F5E5 E5D5 D5C5 C5C4 C4C3 C3B3 B3A3 A3bottom3"/>
    </vehicle>
    <vehicle id="sedan_bottom0A0.2" type="sedan" depart="52.00">
        <route edges="bottom0A0 A0B0 B0C0 C0D0 D0left3"/>
    </vehicle>
    <vehicle id="sedan_bottom4A4.8" type="sedan" depart="52.00">
        <route edges="bottom4A4 A4A3 A3A2 A2A1 A1bottom1"/>
    </vehicle>
    <vehicle id="sedan_bottom5A5.4" type="sedan" depart="52.00">
        <route edges="bottom5A5 A5B5 B5C5 C5D5 D5D6 D6E6 E6F6 F6F7 F7G7 G7G6 G6G5 G5F5 F5E5 E5D5 D5C5 C5B5 B5A5 A5bottom5"/>
    </vehicle>
    <vehicle id="sedan_top2G2.7" type="sedan" depart="52.00">
        <route edges="top2G2 G2G1 G1top1"/>
    </vehicle>
    <vehicle id="sedan_right5F7.3" type="sedan" depart="53.00">
        <route edges="right5F7 F7E7 E7right4"/>
    </vehicle>
    <vehicle id="sedan_bottom0A0.3" type="sedan" depart="54.00">
        <route edges="bottom0A0 A0B0 B0C0 C0D0 D0left3"/>
    </vehicle>
    <vehicle id="sedan_bottom5A5.5" type="sedan" depart="54.00">
        <route edges="bottom5A5 A5B5 B5C5 C5D5 D5D6 D6E6 E6F6 F6G6 G6G7 G7right6"/>
    </vehicle>
    <vehicle id="sedan_bottom7A7.2" type="sedan" depart="54.00">
        <route edges="bottom7A7 A7B7 B7C7 C7D7 D7E7 E7F7 F7G7 G7G6 G6G5 G5G4 G4G3 G3F3 F3E3 E3D3 D3C3 C3C2 C2C1 C1C0 C0left2"/>
    </vehicle>
    <vehicle id="sedan_left0A0.3" type="sedan" depart="54.00">
        <route edges="left0A0 A0A1 A1bottom1"/>
    </vehicle>
    <vehicle id="sedan_right0A7.5" type="sedan" depart="54.00">
        <route edges="right0A7 A7B7 B7B6 B6A6 A6bottom6"/>
    </vehicle>
    <vehicle id="sedan_top1G1.2" type="sedan" depart="54.00">
        <route edges="top1G1 G1F1 F1F2 F2F3 F3F4 F4F5 F5G5 G5top5"/>
    </vehicle>
    <vehicle id="sedan_top5G5.2" type="sedan" depart="54.00">
        <route edges="top5G5 G5F5 F5E5 E5D5 D5D6 D6D7 D7right3"/>
    </vehicle>
    <vehicle id="sedan_bottom5A5.6" type="sedan" depart="55.00">
        <route edges="bottom5A5 A5A4 A4A3 A3bottom3"/>
    </vehicle>
    <vehicle id="sedan_right0A7.6" type="sedan" depart="55.00">
        <route edges="right0A7 A7bottom7"/>
    </vehicle>
    <vehicle id="sedan_top7G7.6" type="sedan" depart="55.00">
        <route edges="top7G7 G7F7 F7E7 E7E6 E6E5 E5E4 E4E3 E3D3 D3C3 C3B3 B3A3 A3A4 A4bottom4"/>
    </vehicle>
    <vehicle id="sedan_left4E0.1" type="sedan" depart="56.00">
        <route edges="left4E0 E0E1 E1F1 F1F2 F2F3 F3F4 F4G4 G4top4"/>
    </vehicle>
    <vehicle id="sedan_top0G0.5" type="sedan" depart="56.00">
        <route edges="top0G0 G0G1 G1top1"/>
    </vehicle>
    <vehicle id="sedan_top7G7.7" type="sedan" depart="56.00">
        <route edges="top7G7 G7F7 F7F6 F6G6 G6G7 G7top7"/>
    </vehicle>
    <vehicle id="sedan_bottom0A0.4" type="sedan" depart="57.00">
        <route edges="bottom0A0 A0B0 B0C0 C0C1 C1C2 C2C3 C3B3 B3A3 A3A4 A4B4 B4C4 C4D4 D4E4 E4F4 F4F3 F3E3 E3D3 D3C3 C3C4 C4C5 C5D5 D5E5 E5F5 F5F4 F4G4 G4top4"/>
    </vehicle>
    <vehicle id="sedan_bottom2A2.7" type="sedan" depart="57.00">
        <route edges="bottom2A2 A2A1 A1B1 B1C1 C1D1 D1E1 E1F1 F1G1 G1G0 G0left6"/>
    </vehicle>
    <vehicle id="sedan_left1B0.7" type="sedan" depart="57.00">
        <route edges="left1B0 B0C0 C0D0 D0D1 D1C1 C1B1 B1A1 A1A2 A2A3 A3bottom3"/>
    </vehicle>
    <vehicle id="sedan_left5F0.4" type="sedan" depart="58.00">
        <route edges="left5F0 F0F1 F1F2 F2F3 F3F4 F4G4 G4G3 G3F3 F3F2 F2F1 F1F0 F0left5"/>
    </vehicle>
    <vehicle id="sedan_right0A7.7" type="sedan" depart="58.00">
        <route edges="right0A7 A7A6 A6bottom6"/>
    </vehicle>
    <vehicle id="sedan_top1G1.3" type="sedan" depart="58.00">
        <route edges="top1G1 G1G2 G2G3 G3G4 G4top4"/>
    </vehicle>
    <vehicle id="sedan_left2C0.7" type="sedan" depart="59.00">
        <route edges="left2C0 C0C1 C1B1 B1B0 B0left1"/>
    </vehicle>
    <vehicle id="sedan_top5G5.3" type="sedan" depart="59.00">
        <route edges="top5G5 G5F5 F5F4 F4F3 F3F2 F2E2 E2D2 D2D1 D1D0 D0left3"/>
    </vehicle>
    <vehicle id="sedan_top7G7.8" type="sedan" depart="59.00">
        <route edges="top7G7 G7F7 F7E7 E7D7 D7C7 C7C6 C6C5 C5C4 C4B4 B4A4 A4A5 A5A6 A6A7 A7right0"/>
    </vehicle>
    <vehicle id="sedan_left1B0.8" type="sedan" depart="60.00">
        <route edges="left1B0 B0C0 C0D0 D0E0 E0E1 E1F1 F1G1 G1G0 G0left6"/>
    </vehicle>
    <vehicle id="sedan_left2C0.8" type="sedan" depart="60.00">
        <route edges="left2C0 C0C1 C1D1 D1D0 D0E0 E0F0 F0F1 F1G1 G1G0 G0F0 F0E0 E0D0 D0D1 D1C1 C1B1 B1A1 A1A0 A0bottom0"/>
    </vehicle>
    <vehicle id="sedan_bottom6A6.5" type="sedan" depart="61.00">
        <route edges="bottom6A6 A6B6 B6C6 C6D6 D6D5 D5C5 C5C6 C6C7 C7D7 D7E7 E7F7 F7F6 F6E6 E6E5 E5E4 E4E3 E3E2 E2D2 D2D3 D3D4 D4D5 D5D6 D6D7 D7right3"/>
    </vehicle>
    <vehicle id="sedan_bottom7A7.3" type="sedan" depart="61.00">
        <route edges="bottom7A7 A7B7 B7C7 C7right2"/>
    </vehicle>
    <vehicle id="sedan_top2G2.8" type="sedan" depart="61.00">
        <route edges="top2G2 G2F2 F2F1 F1E1 E1D1 D1C1 C1C2 C2D2 D2D1 D1D0 D0left3"/>
    </vehicle>
    <vehicle id="sedan_top3G3.2" type="sedan" depart="62.00">
        <route edges="top3G3 G3F3 F3F4 F4F5 F5G5 G5top5"/>
    </vehicle>
    <vehicle id="sedan_right3D7.2" type="sedan" depart="63.00">
        <route edges="right3D7 D7D6 D6D5 D5E5 E5F5 F5F4 F4F3 F3E3 E3E2 E2D2 D2C2 C2C3 C3B3 B3A3 A3A2 A2A1 A1A0 A0bottom0"/>
    </vehicle>
    <vehicle id="sedan_left1B0.9" type="sedan" depart="64.00">
        <route edges="left1B0 B0B1 B1B2 B2B3 B3C3 C3C2 C2C1 C1C0 C0left2"/>
    </vehicle>
    <vehicle id="sedan_left2C0.9" type="sedan" depart="64.00">
        <route edges="left2C0 C0B0 B0B1 B1B2 B2B3 B3C3 C3C2 C2D2 D2D1 D1D0 D0left3"/>
    </vehicle>
    <vehicle id="sedan_right6G7.3" type="sedan" depart="64.00">
        <route edges="right6G7 G7F7 F7E7 E7right4"/>
    </vehicle>
    <vehicle id="sedan_top5G5.4" type="sedan" depart="64.00">
        <route edges="top5G5 G5G6 G6G7 G7right6"/>
    </vehicle>
    <vehicle id="sedan_bottom3A3.3" type="sedan" depart="65.00">
        <route edges="bottom3A3 A3B3 B3B2 B2A2 A2A3 A3A4 A4A5 A5A6 A6A7 A7bottom7"/>
    </vehicle>
    <vehicle id="sedan_bottom6A6.6" type="sedan" depart="65.00">
        <route edges="bottom6A6 A6A7 A7bottom7"/>
    </vehicle>
    <vehicle id="sedan_left2C0.10" type="sedan" depart="65.00">
        <route edges="left2C0 C0C1 C1D1 D1E1 E1E0 E0left4"/>
    </vehicle>
    <vehicle id="sedan_bottom1A1.8" type="sedan" depart="66.00">
        <route edges="bottom1A1 A1A0 A0B0 B0C0 C0left2"/>
    </vehicle>
    <vehicle id="sedan_bottom4A4.9" type="sedan" depart="67.00">
        <route edges="bottom4A4 A4B4 B4B3 B3A3 A3bottom3"/>
    </vehicle>
    <vehicle id="sedan_left6G0.5" type="sedan" depart="67.00">
        <route edges="left6G0 G0G1 G1G2 G2top2"/>
    </vehicle>
    <vehicle id="sedan_right0A7.8" type="sedan" depart="67.00">
        <route edges="right0A7 A7A6 A6A5 A5bottom5"/>
    </vehicle>
    <vehicle id="sedan_top7G7.9" type="sedan" depart="68.00">
        <route edges="top7G7 G7F7 F7right5"/>
    </vehicle>
    <vehicle id="sedan_bottom3A3.4" type="sedan" depart="70.00">
        <route edges="bottom3A3 A3B3 B3C3 C3C2 C2C1 C1C0 C0B0 B0A0 A0left0"/>
    </vehicle>
    <vehicle id="sedan_bottom6A6.7" type="sedan" depart="70.00">
        <route edges="bottom6A6 A6B6 B6C6 C6D6 D6D5 D5C5 C5B5 B5B4 B4B3 B3B2 B2B1 B1B0 B0C0 C0left2"/>
    </vehicle>
    <vehicle id="sedan_left2C0.11" type="sedan" depart="70.00">
        <route edges="left2C0 C0D0 D0E0 E0F0 F0G0 G0G1 G1G2 G2G3 G3G4 G4top4"/>
    </vehicle>
    <vehicle id="sedan_left3D0.8" type="sedan" depart="70.00">
        <route edges="left3D0 D0D1 D1D2 D2C2 C2C1 C1D1 D1E1 E1F1 F1G1 G1top1"/>
    </vehicle>
    <vehicle id="sedan_left5F0.5" type="sedan" depart="71.00">
        <route edges="left5F0 F0F1 F1G1 G1G0 G0left6"/>
    </vehicle>
    <vehicle id="sedan_top4G4.4" type="sedan" depart="71.00">
        <route edges="top4G4 G4F4 F4F5 F5G5 G5top5"/>
    </vehicle>
    <vehicle id="sedan_bottom2A2.8" type="sedan" depart="72.00">
        <route edges="bottom2A2 A2B2 B2B1 B1A1 A1A0 A0bottom0"/>
    </vehicle>
    <vehicle id="sedan_right6G7.4" type="sedan" depart="72.00">
        <route edges="right6G7 G7F7 F7E7 E7D7 D7right3"/>
    </vehicle>
    <vehicle id="sedan_bottom5A5.7" type="sedan" depart="73.00">
        <route edges="bottom5A5 A5A4 A4A3 A3A2 A2A1 A1B1 B1C1 C1D1 D1E1 E1F1 F1F2 F2F3 F3E3 E3D3 D3C3 C3C2 C2C1 C1B1 B1A1 A1A0 A0left0"/>
    </vehicle>
    <vehicle id="sedan_right0A7.9" type="sedan" depart="73.00">
        <route edges="right0A7 A7A6 A6B6 B6B7 B7right1"/>
    </vehicle>
    <vehicle id="sedan_right1B7.5" type="sedan" depart="73.00">
        <route edges="right1B7 B7A7 A7bottom7"/>
    </vehicle>
    <vehicle id="sedan_bottom4A4.10" type="sedan" depart="74.00">
        <route edges="bottom4A4 A4A5 A5A6 A6A7 A7right0"/>
    </vehicle>