<?xml version="1.0" encoding="UTF-8"?>

<!-- generated on 2026-04-14T09:15:04.388789+08:00 by Eclipse SUMO jtrrouter 1.25.0
<jtrrouterConfiguration xmlns:xsi="http://www.w3.org/2001/XMLSchema-instance" xsi:noNamespaceSchemaLocation="http://sumo.dlr.de/xsd/jtrrouterConfiguration.xsd">

    <input>
        <net-file value="network/sim.net.xml"/>
        <route-files value="flows/truck.flow.xml"/>
        <turn-ratio-files value="turn.ratio.xml"/>
    </input>

    <output>
        <output-file value="routes/truck.rou.xml"/>
    </output>

    <processing>
        <accept-all-destinations value="true"/>
    </processing>

    <time>
        <begin value="0"/>
        <end value="3600"/>
    </time>

    <random_number>
        <seed value="1"/>
    </random_number>

</jtrrouterConfiguration>
-->

<routes xmlns:xsi="http://www.w3.org/2001/XMLSchema-instance" xsi:noNamespaceSchemaLocation="http://sumo.dlr.de/xsd/routes_file.xsd">
    <vType id="truck" length="8.00" speedFactor="normc(0.85,0.08,0.20,2.00)" vClass="truck" width="2.50" height="3.00" color="153,102,51" accel="1.3" decel="3.5" sigma="0.3"/>
    <vehicle id="truck_right1B7.0" type="truck" depart="0.00">
        <route edges="right1B7 B7B6 B6A6 A6A5 A5bottom5"/>
    </vehicle>
    <vehicle id="truck_bottom1A1.0" type="truck" depart="3.00">
        <route edges="bottom1A1 A1A0 A0left0"/>
    </vehicle>
    <vehicle id="truck_bottom0A0.0" type="truck" depart="4.00">
        <route edges="bottom0A0 A0left0"/>
    </vehicle>
    <vehicle id="truck_left3D0.0" type="truck" depart="4.00">
        <route edges="left3D0 D0C0 C0left2"/>
    </vehicle>
    <vehicle id="truck_bottom2A2.0" type="truck" depart="5.00">
        <route edges="bottom2A2 A2B2 B2B1 B1C1 C1D1 D1E1 E1E0 E0D0 D0left3"/>
    </vehicle>
    <vehicle id="truck_left1B0.0" type="truck" depart="7.00">
        <route edges="left1B0 B0B1 B1B2 B2B3 B3B4 B4A4 A4A3 A3A2 A2bottom2"/>
    </vehicle>
    <vehicle id="truck_top6G6.0" type="truck" depart="14.00">
        <route edges="top6G6 G6F6 F6F7 F7right5"/>
    </vehicle>
    <vehicle id="truck_top3G3.0" type="truck" depart="19.00">
        <route edges="top3G3 G3G2 G2G1 G1G0 G0left6"/>
    </vehicle>
    <vehicle id="truck_left1B0.1" type="truck" depart="21.00">
        <route edges="left1B0 B0B1 B1A1 A1bottom1"/>
    </vehicle>
    <vehicle id="truck_top7G7.0" type="truck" depart="22.00">
        <route edges="top7G7 G7F7 F7E7 E7D7 D7D6 D6D5 D5C5 C5C4 C4C3 C3B3 B3A3 A3bottom3"/>
    </vehicle>
    <vehicle id="truck_top6G6.1" type="truck" depart="26.00">
        <route edges="top6G6 G6F6 F6F7 F7right5"/>
    </vehicle>
    <vehicle id="truck_bottom2A2.1" type="truck" depart="31.00">
        <route edges="bottom2A2 A2B2 B2B1 B1B0 B0left1"/>
    </vehicle>
    <vehicle id="truck_bottom3A3.0" type="truck" depart="33.00">
        <route edges="bottom3A3 A3B3 B3B2 B2A2 A2bottom2"/>
    </vehicle>
    <vehicle id="truck_bottom4A4.0" type="truck" depart="39.00">
        <route edges="bottom4A4 A4B4 B4C4 C4C5 C5C6 C6C7 C7right2"/>
    </vehicle>
    <vehicle id="truck_top2G2.0" type="truck" depart="39.00">
        <route edges="top2G2 G2G3 G3top3"/>
    </vehicle>
    <vehicle id="truck_left6G0.0" type="truck" depart="40.00">
        <route edges="left6G0 G0top0"/>
    </vehicle>
    <vehicle id="truck_right3D7.0" type="truck" depart="46.00">
        <route edges="right3D7 D7D6 D6C6 C6B6 B6B7 B7C7 C7right2"/>
    </vehicle>
    <vehicle id="truck_left5F0.0" type="truck" depart="51.00">
        <route edges="left5F0 F0G0 G0top0"/>
    </vehicle>
    <vehicle id="truck_right5F7.0" type="truck" depart="53.00">
        <route edges="right5F7 F7F6 F6G6 G6top6"/>
    </vehicle>
    <vehicle id="truck_top0G0.0" type="truck" depart="56.00">
        <route edges="top0G0 G0left6"/>
    </vehicle>
    <vehicle id="truck_top7G7.1" type="truck" depart="56.00">
        <route edges="top7G7 G7F7 F7E7 E7right4"/>
    </vehicle>
    <vehicle id="truck_left1B0.2" type="truck" depart="57.00">
        <route edges="left1B0 B0B1 B1C1 C1D1 D1D0 D0left3"/>
    </vehicle>
    <vehicle id="truck_right6G7.0" type="truck" depart="64.00">
        <route edges="right6G7 G7G6 G6F6 F6F7 F7right5"/>
    </vehicle>
    <vehicle id="truck_right0A7.0" type="truck" depart="73.00">
        <route edges="right0A7 A7A6 A6bottom6"/>
    </vehicle>
    <vehicle id="truck_right1B7.1" type="truck" depart="73.00">
        <route edges="right1B7 B7A7 A7right0"/>
    </vehicle>
    <vehicle id="truck_left1B0.3" type="truck" depart="77.00">
        <route edges="left1B0 B0B1 B1C1 C1D1 D1E1 E1E0 E0left4"/>
    </vehicle>
    <vehicle id="truck_bottom7A7.0" type="truck" depart="78.00">
        <route edges="bottom7A7 A7A6 A6bottom6"/>
    </vehicle>
    <vehicle id="truck_left4E0.0" type="truck" depart="78.00">
        <route edges="left4E0 E0E1 E1D1 D1C1 C1B1 B1A1 A1bottom1"/>
    </vehicle>
    <vehicle id="truck_bottom3A3.1" type="truck" depart="79.00">
        <route edges="bottom3A3 A3A4 A4B4 B4C4 C4D4 D4E4 E4F4 F4F5 F5G5 G5top5"/>
    </vehicle>
    <vehicle id="truck_bottom4A4.1" type="truck" depart="82.00">
        <route edges="bottom4A4 A4B4 B4C4 C4D4 D4E4 E4F4 F4G4 G4G3 G3F3 F3F2 F2G2 G2G3 G3G4 G4G5 G5G6 G6G7 G7right6"/>
    </vehicle>
    <vehicle id="truck_top2G2.1" type="truck" depart="85.00">
        <route edges="top2G2 G2G3 G3G4 G4top4"/>
    </vehicle>
    <vehicle id="truck_bottom4A4.2" type="truck" depart="86.00">
        <route edges="bottom4A4 A4A5 A5A6 A6B6 B6C6 C6C5 C5C4 C4B4 B4A4 A4bottom4"/>
    </vehicle>
    <vehicle id="truck_right0A7.1" type="truck" depart="86.00">
        <route edges="right0A7 A7A6 A6B6 B6C6 C6D6 D6E6 E6F6 F6G6 G6top6"/>
    </vehicle>
    <vehicle id="truck_top4G4.0" type="truck" depart="86.00">
        <route edges="top4G4 G4G5 G5G6 G6G7 G7right6"/>
    </vehicle>
    <vehicle id="truck_bottom7A7.1" type="truck" depart="88.00">
        <route edges="bottom7A7 A7B7 B7C7 C7D7 D7E7 E7right4"/>
    </vehicle>
    <vehicle id="truck_bottom7A7.2" type="truck" depart="89.00">
        <route edges="bottom7A7 A7A6 A6bottom6"/>
    </vehicle>
    <vehicle id="truck_top0G0.1" type="truck" depart="89.00">
        <route edges="top0G0 G0F0 F0E0 E0left4"/>
    </vehicle>
    <vehicle id="truck_bottom5A5.0" type="truck" depart="90.00">
        <route edges="bottom5A5 A5A6 A6B6 B6C6 C6C7 C7D7 D7E7 E7F7 F7G7 G7top7"/>
    </vehicle>
    <vehicle id="truck_right6G7.1" type="truck" depart="92.00">
        <route edges="right6G7 G7F7 F7E7 E7D7 D7C7 C7B7 B7A7 A7A6 A6bottom6"/>
    </vehicle>
    <vehicle id="truck_left0A0.0" type="truck" depart="93.00">
        <route edges="left0A0 A0A1 A1A2 A2bottom2"/>
    </vehicle>
    <vehicle id="truck_top6G6.2" type="truck" depart="96.00">
        <route edges="top6G6 G6F6 F6F7 F7E7 E7D7 D7C7 C7B7 B7A7 A7bottom7"/>
    </vehicle>
    <vehicle id="truck_bottom1A1.1" type="truck" depart="98.00">
        <route edges="bottom1A1 A1A0 A0left0"/>
    </vehicle>
    <vehicle id="truck_bottom2A2.2" type="truck" depart="100.00">
        <route edges="bottom2A2 A2B2 B2B1 B1B0 B0A0 A0bottom0"/>
    </vehicle>
    <vehicle id="truck_left5F0.1" type="truck" depart="106.00">
        <route edges="left5F0 F0F1 F1E1 E1E0 E0D0 D0C0 C0B0 B0A0 A0bottom0"/>
    </vehicle>
    <vehicle id="truck_left4E0.1" type="truck" depart="107.00">
        <route edges="left4E0 E0E1 E1F1 F1G1 G1top1"/>
    </vehicle>
    <vehicle id="truck_top3G3.1" type="truck" depart="107.00">
        <route edges="top3G3 G3G2 G2F2 F2E2 E2D2 D2D3 D3D4 D4D5 D5D6 D6D7 D7right3"/>
    </vehicle>
    <vehicle id="truck_left0A0.1" type="truck" depart="109.00">
        <route edges="left0A0 A0A1 A1B1 B1C1 C1C0 C0D0 D0D1 D1D2 D2D3 D3D4 D4E4 E4E3 E3E2 E2F2 F2F3 F3F4 F4G4 G4G3 G3G2 G2G1 G1G0 G0top0"/>
    </vehicle>
    <vehicle id="truck_left4E0.2" type="truck" depart="109.00">
        <route edges="left4E0 E0E1 E1F1 F1G1 G1top1"/>
    </vehicle>
    <vehicle id="truck_right6G7.2" type="truck" depart="112.00">
        <route edges="right6G7 G7G6 G6F6 F6E6 E6E7 E7F7 F7G7 G7right6"/>
    </vehicle>
    <vehicle id="truck_left0A0.2" type="truck" depart="115.00">
        <route edges="left0A0 A0A1 A1bottom1"/>
    </vehicle>
    <vehicle id="truck_top6G6.3" type="truck" depart="117.00">
        <route edges="top6G6 G6G7 G7right6"/>
    </vehicle>
    <vehicle id="truck_right4E7.0" type="truck" depart="121.00">
        <route edges="right4E7 E7F7 F7G7 G7top7"/>
    </vehicle>
    <vehicle id="truck_bottom5A5.1" type="truck" depart="126.00">
        <route edges="bottom5A5 A5B5 B5B4 B4B3 B3A3 A3bottom3"/>
    </vehicle>
    <vehicle id="truck_left6G0.1" type="truck" depart="126.00">
        <route edges="left6G0 G0G1 G1F1 F1E1 E1D1 D1D2 D2D3 D3D4 D4E4 E4F4 F4F5 F5G5 G5top5"/>
    </vehicle>
    <vehicle id="truck_right3D7.1" type="truck" depart="127.00">
        <route edges="right3D7 D7E7 E7right4"/>
    </vehicle>
    <vehicle id="truck_bottom2A2.3" type="truck" depart="129.00">
        <route edges="bottom2A2 A2A3 A3B3 B3B2 B2B1 B1C1 C1C0 C0D0 D0E0 E0F0 F0G0 G0top0"/>
    </vehicle>
    <vehicle id="truck_left6G0.2" type="truck" depart="134.00">
        <route edges="left6G0 G0G1 G1G2 G2F2 F2E2 E2D2 D2C2 C2C3 C3B3 B3B2 B2B1 B1A1 A1A2 A2bottom2"/>
    </vehicle>
    <vehicle id="truck_bottom7A7.3" type="truck" depart="135.00">
        <route edges="bottom7A7 A7B7 B7C7 C7D7 D7E7 E7E6 E6E5 E5F5 F5G5 G5top5"/>
    </vehicle>
    <vehicle id="truck_right1B7.2" type="truck" depart="137.00">
        <route edges="right1B7 B7B6 B6A6 A6bottom6"/>
    </vehicle>
    <vehicle id="truck_bottom5A5.2" type="truck" depart="138.00">
        <route edges="bottom5A5 A5A4 A4A3 A3A2 A2A1 A1A0 A0left0"/>
    </vehicle>
    <vehicle id="truck_bottom6A6.0" type="truck" depart="154.00">
        <route edges="bottom6A6 A6B6 B6C6 C6D6 D6D7 D7right3"/>
    </vehicle>
    <vehicle id="truck_bottom2A2.4" type="truck" depart="155.00">
        <route edges="bottom2A2 A2A3 A3A4 A4A5 A5B5 B5C5 C5C6 C6C7 C7right2"/>
    </vehicle>
    <vehicle id="truck_top0G0.2" type="truck" depart="155.00">
        <route edges="top0G0 G0F0 F0F1 F1F2 F2F3 F3F4 F4F5 F5E5 E5D5 D5C5 C5B5 B5A5 A5A6 A6bottom6"/>
    </vehicle>
    <vehicle id="truck_left4E0.3" type="truck" depart="157.00">
        <route edges="left4E0 E0E1 E1F1 F1F0 F0G0 G0top0"/>
    </vehicle>
    <vehicle id="truck_left6G0.3" type="truck" depart="157.00">
        <route edges="left6G0 G0F0 F0F1 F1F2 F2E2 E2D2 D2C2 C2C1 C1B1 B1A1 A1bottom1"/>
    </vehicle>
    <vehicle id="truck_bottom5A5.3" type="truck" depart="161.00">
        <route edges="bottom5A5 A5A4 A4B4 B4B5 B5C5 C5D5 D5E5 E5F5 F5F4 F4F3 F3F2 F2F1 F1F0 F0left5"/>
    </vehicle>
    <vehicle id="truck_left0A0.3" type="truck" depart="163.00">
        <route edges="left0A0 A0A1 A1B1 B1B2 B2A2 A2A1 A1bottom1"/>
    </vehicle>
    <vehicle id="truck_top5G5.0" type="truck" depart="165.00">
        <route edges="top5G5 G5G6 G6G7 G7right6"/>
    </vehicle>
    <vehicle id="truck_top6G6.4" type="truck" depart="165.00">
        <route edges="top6G6 G6F6 F6E6 E6E7 E7right4"/>
    </vehicle>
    <vehicle id="truck_left4E0.4" type="truck" depart="166.00">
        <route edges="left4E0 E0D0 D0C0 C0B0 B0left1"/>
    </vehicle>
    <vehicle id="truck_left5F0.2" type="truck" depart="171.00">
        <route edges="left5F0 F0F1 F1F2 F2G2 G2top2"/>
    </vehicle>
    <vehicle id="truck_bottom4A4.3" type="truck" depart="174.00">
        <route edges="bottom4A4 A4B4 B4B3 B3A3 A3A4 A4A5 A5A6 A6bottom6"/>
    </vehicle>
    <vehicle id="truck_bottom0A0.1" type="truck" depart="175.00">
        <route edges="bottom0A0 A0A1 A1B1 B1B2 B2A2 A2bottom2"/>
    </vehicle>
    <vehicle id="truck_top3G3.2" type="truck" depart="176.00">
        <route edges="top3G3 G3F3 F3E3 E3D3 D3D4 D4E4 E4E3 E3E2 E2D2 D2D3 D3C3 C3C4 C4C5 C5D5 D5D6 D6D7 D7E7 E7F7 F7right5"/>
    </vehicle>
    <vehicle id="truck_bottom6A6.1" type="truck" depart="180.00">
        <route edges="bottom6A6 A6A7 A7right0"/>
    </vehicle>
    <vehicle id="truck_bottom7A7.4" type="truck" depart="181.00">
        <route edges="bottom7A7 A7B7 B7C7 C7D7 D7D6 D6D5 D5C5 C5B5 B5A5 A5bottom5"/>
    </vehicle>
    <vehicle id="truck_left0A0.4" type="truck" depart="181.00">
        <route edges="left0A0 A0B0 B0C0 C0C1 C1D1 D1E1 E1F1 F1F0 F0left5"/>
    </vehicle>
    <vehicle id="truck_right0A7.2" type="truck" depart="189.00">
        <route edges="right0A7 A7A6 A6A5 A5bottom5"/>
    </vehicle>
    <vehicle id="truck_top1G1.0" type="truck" depart="194.00">
        <route edges="top1G1 G1F1 F1F0 F0E0 E0left4"/>
    </vehicle>
    <vehicle id="truck_bottom0A0.2" type="truck" depart="196.00">
        <route edges="bottom0A0 A0B0 B0C0 C0D0 D0D1 D1D2 D2D3 D3D4 D4D5 D5D6 D6D7 D7E7 E7F7 F7right5"/>
    </vehicle>
    <vehicle id="truck_right1B7.3" type="truck" depart="197.00">
        <route edges="right1B7 B7B6 B6A6 A6A7 A7B7 B7C7 C7C6 C6C5 C5B5 B5A5 A5A6 A6B6 B6C6 C6C7 C7right2"/>
    </vehicle>
    <vehicle id="truck_top3G3.3" type="truck" depart="198.00">
        <route edges="top3G3 G3G2 G2G1 G1G0 G0F0 F0F1 F1F2 F2F3 F3F4 F4G4 G4top4"/>
    </vehicle>
    <vehicle id="truck_bottom4A4.4" type="truck" depart="200.00">
        <route edges="bottom4A4 A4A3 A3bottom3"/>
    </vehicle>
    <vehicle id="truck_right2C7.0" type="truck" depart="200.00">
        <route edges="right2C7 C7B7 B7A7 A7A6 A6A5 A5A4 A4B4 B4C4 C4D4 D4E4 E4E3 E3D3 D3C3 C3B3 B3A3 A3bottom3"/>
    </vehicle>
    <vehicle id="truck_top6G6.5" type="truck" depart="209.00">
        <route edges="top6G6 G6G7 G7right6"/>
    </vehicle>
    <vehicle id="truck_top3G3.4" type="truck" depart="210.00">
        <route edges="top3G3 G3F3 F3E3 E3D3 D3C3 C3B3 B3A3 A3A2 A2B2 B2B1 B1B0 B0left1"/>
    </vehicle>
    <vehicle id="truck_left6G0.4" type="truck" depart="212.00">
        <route edges="left6G0 G0G1 G1F1 F1F2 F2F3 F3F4 F4G4 G4top4"/>
    </vehicle>
    <vehicle id="truck_bottom1A1.2" type="truck" depart="213.00">
        <route edges="bottom1A1 A1B1 B1B0 B0A0 A0bottom0"/>
    </vehicle>
    <vehicle id="truck_left0A0.5" type="truck" depart="220.00">
        <route edges="left0A0 A0A1 A1A2 A2B2 B2B1 B1B0 B0C0 C0D0 D0E0 E0left4"/>
    </vehicle>
    <vehicle id="truck_right1B7.4" type="truck" depart="229.00">
        <route edges="right1B7 B7B6 B6A6 A6A7 A7right0"/>
    </vehicle>
    <vehicle id="truck_bottom1A1.3" type="truck" depart="230.00">
        <route edges="bottom1A1 A1B1 B1C1 C1D1 D1E1 E1E0 E0F0 F0F1 F1F2 F2E2 E2D2 D2C2 C2C1 C1C0 C0B0 B0A0 A0bottom0"/>
    </vehicle>
    <vehicle id="truck_left0A0.6" type="truck" depart="231.00">
        <route edges="left0A0 A0B0 B0C0 C0C1 C1D1 D1D0 D0left3"/>
    </vehicle>
    <vehicle id="truck_bottom7A7.5" type="truck" depart="232.00">
        <route edges="bottom7A7 A7right0"/>
    </vehicle>
    <vehicle id="truck_top5G5.1" type="truck" depart="234.00">
        <route edges="top5G5 G5F5 F5E5 E5E4 E4F4 F4G4 G4G3 G3G2 G2top2"/>
    </vehicle>
    <vehicle id="truck_bottom5A5.4" type="truck" depart="237.00">
        <route edges="bottom5A5 A5B5 B5B4 B4B3 B3B2 B2B1 B1C1 C1C0 C0left2"/>
    </vehicle>
    <vehicle id="truck_bottom7A7.6" type="truck" depart="240.00">
        <route edges="bottom7A7 A7A6 A6A5 A5A4 A4A3 A3A2 A2A1 A1A0 A0bottom0"/>
    </vehicle>
    <vehicle id="truck_right2C7.1" type="truck" depart="243.00">
        <route edges="right2C7 C7C6 C6C5 C5D5 D5E5 E5F5 F5F4 F4F3 F3F2 F2F1 F1E1 E1E0 E0D0 D0C0 C0B0 B0B1 B1B2 B2A2 A2bottom2"/>
    </vehicle>
    <vehicle id="truck_top0G0.3" type="truck" depart="243.00">
        <route edges="top0G0 G0left6"/>
    </vehicle>
    <vehicle id="truck_right2C7.2" type="truck" depart="248.00">
        <route edges="right2C7 C7B7 B7A7 A7A6 A6B6 B6B7 B7right1"/>
    </vehicle>
    <vehicle id="truck_left6G0.5" type="truck" depart="249.00">
        <route edges="left6G0 G0top0"/>
    </vehicle>
    <vehicle id="truck_bottom0A0.3" type="truck" depart="250.00">
        <route edges="bottom0A0 A0B0 B0left1"/>
    </vehicle>
    <vehicle id="truck_bottom1A1.4" type="truck" depart="250.00">
        <route edges="bottom1A1 A1A0 A0left0"/>
    </vehicle>
    <vehicle id="truck_top4G4.1" type="truck" depart="251.00">
        <route edges="top4G4 G4G5 G5F5 F5E5 E5D5 D5D6 D6E6 E6F6 F6G6 G6G5 G5G4 G4G3 G3G2 G2F2 F2F3 F3F4 F4G4 G4top4"/>
    </vehicle>
    <vehicle id="truck_bottom3A3.2" type="truck" depart="256.00">
        <route edges="bottom3A3 A3B3 B3C3 C3C4 C4D4 D4D5 D5D6 D6E6 E6F6 F6G6 G6top6"/>
    </vehicle>
    <vehicle id="truck_right6G7.3" type="truck" depart="256.00">
        <route edges="right6G7 G7F7 F7F6 F6E6 E6D6 D6D5 D5C5 C5B5 B5A5 A5A6 A6B6 B6C6 C6C7 C7D7 D7E7 E7F7 F7G7 G7top7"/>
    </vehicle>
    <vehicle id="truck_top7G7.2" type="truck" depart="258.00">
        <route edges="top7G7 G7G6 G6G5 G5F5 F5E5 E5D5 D5C5 C5B5 B5A5 A5A4 A4A3 A3A2 A2A1 A1A0 A0bottom0"/>
    </vehicle>
    <vehicle id="truck_bottom3A3.3" type="truck" depart="259.00">
        <route edges="bottom3A3 A3B3 B3C3 C3C2 C2C1 C1C0 C0left2"/>
    </vehicle>
    <vehicle id="truck_top3G3.5" type="truck" depart="260.00">
        <route edges="top3G3 G3F3 F3E3 E3D3 D3C3 C3B3 B3B2 B2B1 B1B0 B0left1"/>
    </vehicle>
    <vehicle id="truck_bottom6A6.2" type="truck" depart="264.00">
        <route edges="bottom6A6 A6B6 B6B7 B7A7 A7bottom7"/>
    </vehicle>
    <vehicle id="truck_left2C0.0" type="truck" depart="266.00">
        <route edges="left2C0 C0B0 B0A0 A0A1 A1B1 B1C1 C1D1 D1D0 D0E0 E0F0 F0G0 G0top0"/>
    </vehicle>
    <vehicle id="truck_top3G3.6" type="truck" depart="268.00">
        <route edges="top3G3 G3F3 F3F2 F2E2 E2D2 D2C2 C2C1 C1C0 C0left2"/>
    </vehicle>
    <vehicle id="truck_top7G7.3" type="truck" depart="268.00">
        <route edges="top7G7 G7F7 F7E7 E7D7 D7C7 C7C6 C6C5 C5B5 B5A5 A5A4 A4A3 A3A2 A2A1 A1A0 A0bottom0"/>
    </vehicle>
    <vehicle id="truck_right6G7.4" type="truck" depart="272.00">
        <route edges="right6G7 G7G6 G6G5 G5G4 G4G3 G3F3 F3E3 E3D3 D3C3 C3B3 B3B2 B2A2 A2bottom2"/>
    </vehicle>
    <vehicle id="truck_left2C0.1" type="truck" depart="275.00">
        <route edges="left2C0 C0C1 C1D1 D1E1 E1F1 F1G1 G1top1"/>
    </vehicle>
    <vehicle id="truck_top5G5.2" type="truck" depart="275.00">
        <route edges="top5G5 G5F5 F5E5 E5D5 D5C5 C5B5 B5B4 B4B3 B3C3 C3C4 C4C5 C5C6 C6C7 C7D7 D7D6 D6C6 C6B6 B6A6 A6bottom6"/>
    </vehicle>
    <vehicle id="truck_left2C0.2" type="truck" depart="286.00">
        <route edges="left2C0 C0C1 C1C2 C2D2 D2E2 E2F2 F2G2 G2top2"/>
    </vehicle>
    <vehicle id="truck_right4E7.1" type="truck" depart="289.00">
        <route edges="right4E7 E7F7 F7G7 G7top7"/>
    </vehicle>
    <vehicle id="truck_bottom3A3.4" type="truck" depart="295.00">
        <route edges="bottom3A3 A3B3 B3C3 C3C2 C2C1 C1C0 C0B0 B0left1"/>
    </vehicle>
    <vehicle id="truck_right3D7.2" type="truck" depart="304.00">
        <route edges="right3D7 D7D6 D6D5 D5E5 E5F5 F5F4 F4F3 F3E3 E3E2 E2D2 D2C2 C2C3 C3C4 C4C5 C5C6 C6C7 C7D7 D7E7 E7F7 F7G7 G7top7"/>
    </vehicle>
    <vehicle id="truck_bottom3A3.5" type="truck" depart="306.00">
        <route edges="bottom3A3 A3A2 A2bottom2"/>
    </vehicle>
    <vehicle id="truck_left4E0.5" type="truck" depart="306.00">
        <route edges="left4E0 E0D0 D0left3"/>
    </vehicle>
    <vehicle id="truck_bottom3A3.6" type="truck" depart="308.00">
        <route edges="bottom3A3 A3A2 A2bottom2"/>
    </vehicle>
    <vehicle id="truck_top7G7.4" type="truck" depart="308.00">
        <route edges="top7G7 G7F7 F7E7 E7E6 E6D6 D6C6 C6B6 B6A6 A6bottom6"/>
    </vehicle>
    <vehicle id="truck_bottom3A3.7" type="truck" depart="313.00">
        <route edges="bottom3A3 A3A2 A2A1 A1bottom1"/>
    </vehicle>
    <vehicle id="truck_left2C0.3" type="truck" depart="314.00">
        <route edges="left2C0 C0D0 D0E0 E0F0 F0G0 G0top0"/>
    </vehicle>
    <vehicle id="truck_bottom3A3.8" type="truck" depart="315.00">
        <route edges="bottom3A3 A3B3 B3B4 B4B5 B5A5 A5A6 A6A7 A7right0"/>
    </vehicle>
    <vehicle id="truck_top3G3.7" type="truck" depart="315.00">
        <route edges="top3G3 G3F3 F3E3 E3D3 D3C3 C3C4 C4D4 D4D5 D5D6 D6D7 D7right3"/>
    </vehicle>
    <vehicle id="truck_left4E0.6" type="truck" depart="321.00">
        <route edges="left4E0 E0E1 E1F1 F1G1 G1G2 G2G3 G3F3 F3F2 F2F1 F1F0 F0E0 E0D0 D0C0 C0C1 C1B1 B1A1 A1A2 A2bottom2"/>
    </vehicle>
    <vehicle id="truck_left0A0.7" type="truck" depart="322.00">
        <route edges="left0A0 A0A1 A1A2 A2B2 B2B3 B3A3 A3bottom3"/>
    </vehicle>
    <vehicle id="truck_top1G1.1" type="truck" depart="322.00">
        <route edges="top1G1 G1G0 G0F0 F0left5"/>
    </vehicle>
    <vehicle id="truck_left5F0.3" type="truck" depart="330.00">
        <route edges="left5F0 F0E0 E0E1 E1F1 F1F2 F2G2 G2top2"/>
    </vehicle>
    <vehicle id="truck_top1G1.2" type="truck" depart="332.00">
        <route edges="top1G1 G1G2 G2top2"/>
    </vehicle>
    <vehicle id="truck_right1B7.5" type="truck" depart="334.00">
        <route edges="right1B7 B7B6 B6A6 A6bottom6"/>
    </vehicle>
    <vehicle id="truck_right0A7.3" type="truck" depart="344.00">
        <route edges="right0A7 A7A6 A6A5 A5A4 A4A3 A3A2 A2B2 B2B1 B1A1 A1bottom1"/>
    </vehicle>
    <vehicle id="truck_bottom0A0.4" type="truck" depart="348.00">
        <route edges="bottom0A0 A0B0 B0C0 C0D0 D0left3"/>
    </vehicle>
    <vehicle id="truck_bottom7A7.7" type="truck" depart="351.00">
        <route edges="bottom7A7 A7B7 B7C7 C7right2"/>
    </vehicle>
    <vehicle id="truck_right2C7.3" type="truck" depart="352.00">
        <route edges="right2C7 C7C6 C6D6 D6D7 D7E7 E7F7 F7right5"/>
    </vehicle>
    <vehicle id="truck_left0A0.8" type="truck" depart="361.00">
        <route edges="left0A0 A0B0 B0left1"/>
    </vehicle>
    <vehicle id="truck_bottom3A3.9" type="truck" depart="365.00">
        <route edges="bottom3A3 A3A2 A2bottom2"/>
    </vehicle>
    <vehicle id="truck_left3D0.1" type="truck" depart="368.00">
        <route edges="left3D0 D0D1 D1D2 D2D3 D3D4 D4D5 D5C5 C5C4 C4B4 B4A4 A4bottom4"/>
    </vehicle>
    <vehicle id="truck_top6G6.6" type="truck" depart="374.00">
        <route edges="top6G6 G6G7 G7top7"/>
    </vehicle>
    <vehicle id="truck_top3G3.8" type="truck" depart="375.00">
        <route edges="top3G3 G3F3 F3F4 F4F5 F5G5 G5G6 G6G7 G7right6"/>
    </vehicle>
    <vehicle id="truck_bottom6A6.3" type="truck" depart="383.00">
        <route edges="bottom6A6 A6B6 B6C6 C6C5 C5D5 D5D6 D6D7 D7C7 C7B7 B7A7 A7bottom7"/>
    </vehicle>
    <vehicle id="truck_bottom3A3.10" type="truck" depart="387.00">
        <route edges="bottom3A3 A3A4 A4A5 A5A6 A6B6 B6C6 C6C5 C5C4 C4B4 B4B5 B5A5 A5A4 A4bottom4"/>
    </vehicle>
    <vehicle id="truck_top0G0.4" type="truck" depart="387.00">
        <route edges="top0G0 G0G1 G1F1 F1E1 E1D1 D1D2 D2C2 C2C1 C1B1 B1B2 B2B3 B3B4 B4B5 B5A5 A5bottom5"/>
    </vehicle>
    <vehicle id="truck_left0A0.9" type="truck" depart="388.00">
        <route edges="left0A0 A0B0 B0B1 B1C1 C1D1 D1E1 E1F1 F1G1 G1G0 G0left6"/>
    </vehicle>
    <vehicle id="truck_left6G0.6" type="truck" depart="389.00">
        <route edges="left6G0 G0F0 F0E0 E0D0 D0C0 C0B0 B0A0 A0bottom0"/>
    </vehicle>
    <vehicle id="truck_left1B0.4" type="truck" depart="395.00">
        <route edges="left1B0 B0B1 B1B2 B2B3 B3B4 B4B5 B5C5 C5D5 D5E5 E5F5 F5F4 F4F3 F3E3 E3D3 D3C3 C3C4 C4D4 D4E4 E4E3 E3E2 E2D2 D2C2 C2C3 C3B3 B3B2 B2A2 A2A1 A1A0 A0left0"/>
    </vehicle>
    <vehicle id="truck_left2C0.4" type="truck" depart="397.00">
        <route edges="left2C0 C0C1 C1C2 C2D2 D2E2 E2F2 F2G2 G2top2"/>
    </vehicle>
    <vehicle id="truck_bottom1A1.5" type="truck" depart="399.00">
        <route edges="bottom1A1 A1B1 B1C1 C1D1 D1D2 D2E2 E2F2 F2G2 G2top2"/>
    </vehicle>
    <vehicle id="truck_bottom4A4.5" type="truck" depart="400.00">
        <route edges="bottom4A4 A4A5 A5bottom5"/>
    </vehicle>
    <vehicle id="truck_left2C0.5" type="truck" depart="405.00">
        <route edges="left2C0 C0C1 C1D1 D1D2 D2D3 D3C3 C3B3 B3A3 A3bottom3"/>
    </vehicle>
    <vehicle id="truck_bottom1A1.6" type="truck" depart="406.00">
        <route edges="bottom1A1 A1A0 A0left0"/>
    </vehicle>
    <vehicle id="truck_top0G0.5" type="truck" depart="407.00">
        <route edges="top0G0 G0F0 F0F1 F1F2 F2E2 E2D2 D2C2 C2C3 C3C4 C4C5 C5D5 D5E5 E5E6 E6D6 D6C6 C6B6 B6A6 A6A5 A5A4 A4A3 A3A2 A2A1 A1A0 A0bottom0"/>
    </vehicle>
    <vehicle id="truck_left6G0.7" type="truck" depart="408.00">
        <route edges="left6G0 G0top0"/>
    </vehicle>
    <vehicle id="truck_right3D7.3" type="truck" depart="418.00">
        <route edges="right3D7 D7D6 D6D5 D5E5 E5F5 F5G5 G5G4 G4G3 G3G2 G2F2 F2E2 E2D2 D2C2 C2C3 C3B3 B3A3 A3bottom3"/>
    </vehicle>
    <vehicle id="truck_top7G7.5" type="truck" depart="418.00">
        <route edges="top7G7 G7G6 G6G5 G5G4 G4G3 G3F3 F3E3 E3D3 D3D4 D4D5 D5D6 D6D7 D7C7 C7right2"/>
    </vehicle>
    <vehicle id="truck_left0A0.10" type="truck" depart="423.00">
        <route edges="left0A0 A0bottom0"/>
    </vehicle>
    <vehicle id="truck_right6G7.5" type="truck" depart="426.00">
        <route edges="right6G7 G7top7"/>
    </vehicle>
    <vehicle id="truck_left5F0.4" type="truck" depart="429.00">
        <route edges="left5F0 F0F1 F1G1 G1top1"/>
    </vehicle>
    <vehicle id="truck_top0G0.6" type="truck" depart="431.00">
        <route edges="top0G0 G0G1 G1F1 F1E1 E1E0 E0left4"/>
    </vehicle>
    <vehicle id="truck_bottom5A5.5" type="truck" depart="434.00">
        <route edges="bottom5A5 A5B5 B5C5 C5C4 C4C3 C3C2 C2C1 C1C0 C0left2"/>
    </vehicle>
    <vehicle id="truck_left2C0.6" type="truck" depart="434.00">
        <route edges="left2C0 C0C1 C1C2 C2D2 D2D1 D1C1 C1C0 C0left2"/>
    </vehicle>
    <vehicle id="truck_top6G6.7" type="truck" depart="435.00">
        <route edges="top6G6 G6F6 F6F7 F7right5"/>
    </vehicle>
    <vehicle id="truck_bottom6A6.4" type="truck" depart="437.00">
        <route edges="bottom6A6 A6B6 B6B7 B7right1"/>
    </vehicle>
    <vehicle id="truck_right6G7.6" type="truck" depart="438.00">
        <route edges="right6G7 G7G6 G6G5 G5G4 G4G3 G3G2 G2G1 G1G0 G0left6"/>
    </vehicle>
    <vehicle id="truck_left2C0.7" type="truck" depart="446.00">
        <route edges="left2C0 C0C1 C1C2 C2C3 C3C4 C4C5 C5D5 D5E5 E5E4 E4E3 E3E2 E2D2 D2C2 C2C1 C1D1 D1E1 E1F1 F1G1 G1top1"/>
    </vehicle>
    <vehicle id="truck_top6G6.8" type="truck" depart="451.00">
        <route edges="top6G6 G6F6 F6E6 E6D6 D6C6 C6C7 C7D7 D7D6 D6D5 D5E5 E5F5 F5G5 G5top5"/>
    </vehicle>
    <vehicle id="truck_bottom6A6.5" type="truck" depart="456.00">
        <route edges="bottom6A6 A6B6 B6C6 C6D6 D6E6 E6F6 F6G6 G6top6"/>
    </vehicle>
    <vehicle id="truck_top2G2.2" type="truck" depart="457.00">
        <route edges="top2G2 G2F2 F2E2 E2D2 D2C2 C2C1 C1C0 C0left2"/>
    </vehicle>
    <vehicle id="truck_bottom7A7.8" type="truck" depart="458.00">
        <route edges="bottom7A7 A7A6 A6bottom6"/>
    </vehicle>
    <vehicle id="truck_left4E0.7" type="truck" depart="462.00">
        <route edges="left4E0 E0F0 F0left5"/>
    </vehicle>
    <vehicle id="truck_right6G7.7" type="truck" depart="462.00">
        <route edges="right6G7 G7G6 G6F6 F6E6 E6E7 E7right4"/>
    </vehicle>
    <vehicle id="truck_left1B0.5" type="truck" depart="470.00">
        <route edges="left1B0 B0C0 C0D0 D0E0 E0F0 F0G0 G0top0"/>
    </vehicle>
    <vehicle id="truck_left3D0.2" type="truck" depart="473.00">
        <route edges="left3D0 D0C0 C0B0 B0A0 A0bottom0"/>
    </vehicle>
    <vehicle id="truck_top6G6.9" type="truck" depart="473.00">
        <route edges="top6G6 G6F6 F6E6 E6D6 D6C6 C6B6 B6A6 A6A7 A7bottom7"/>
    </vehicle>
    <vehicle id="truck_left5F0.5" type="truck" depart="477.00">
        <route edges="left5F0 F0F1 F1F2 F2F3 F3F4 F4G4 G4G5 G5top5"/>
    </vehicle>
    <vehicle id="truck_bottom6A6.6" type="truck" depart="480.00">
        <route edges="bottom6A6 A6A5 A5A4 A4bottom4"/>
    </vehicle>
    <vehicle id="truck_top7G7.6" type="truck" depart="483.00">
        <route edges="top7G7 G7F7 F7E7 E7right4"/>
    </vehicle>
    <vehicle id="truck_top3G3.9" type="truck" depart="486.00">
        <route edges="top3G3 G3F3 F3E3 E3D3 D3C3 C3B3 B3A3 A3A2 A2B2 B2B1 B1B0 B0left1"/>
    </vehicle>
    <vehicle id="truck_top5G5.3" type="truck" depart="486.00">
        <route edges="top5G5 G5F5 F5E5 E5D5 D5C5 C5B5 B5B4 B4B3 B3A3 A3A4 A4A5 A5A6 A6B6 B6C6 C6C5 C5C4 C4C3 C3C2 C2D2 D2E2 E2F2 F2F1 F1F0 F0left5"/>
    </vehicle>
    <vehicle id="truck_top2G2.3" type="truck" depart="488.00">
        <route edges="top2G2 G2G3 G3G4 G4G5 G5F5 F5E5 E5E6 E6E7 E7right4"/>
    </vehicle>
    <vehicle id="truck_left6G0.8" type="truck" depart="490.00">
        <route edges="left6G0 G0G1 G1G2 G2G3 G3G4 G4top4"/>
    </vehicle>
    <vehicle id="truck_right2C7.4" type="truck" depart="494.00">
        <route edges="right2C7 C7D7 D7E7 E7F7 F7F6 F6E6 E6E5 E5E4 E4F4 F4F5 F5G5 G5top5"/>
    </vehicle>
    <vehicle id="truck_top1G1.3" type="truck" depart="495.00">
        <route edges="top1G1 G1F1 F1E1 E1D1 D1C1 C1B1 B1B2 B2A2 A2bottom2"/>
    </vehicle>
    <vehicle id="truck_bottom0A0.5" type="truck" depart="498.00">
        <route edges="bottom0A0 A0left0"/>
    </vehicle>
    <vehicle id="truck_right0A7.4" type="truck" depart="504.00">
        <route edges="right0A7 A7A6 A6bottom6"/>
    </vehicle>
    <vehicle id="truck_right3D7.4" type="truck" depart="504.00">
        <route edges="right3D7 D7D6 D6D5 D5C5 C5C6 C6C7 C7right2"/>
    </vehicle>
    <vehicle id="truck_bottom7A7.9" type="truck" depart="508.00">
        <route edges="bottom7A7 A7A6 A6A5 A5B5 B5C5 C5C4 C4C3 C3C2 C2C1 C1B1 B1A1 A1bottom1"/>
    </vehicle>
    <vehicle id="truck_bottom5A5.6" type="truck" depart="509.00">
        <route edges="bottom5A5 A5B5 B5B4 B4B3 B3B2 B2B1 B1C1 C1C2 C2C3 C3C4 C4C5 C5D5 D5D6 D6C6 C6C5 C5C4 C4C3 C3C2 C2D2 D2D1 D1D0 D0left3"/>
    </vehicle>
    <vehicle id="truck_left3D0.3" type="truck" depart="511.00">
        <route edges="left3D0 D0E0 E0F0 F0F1 F1F2 F2F3 F3F4 F4G4 G4top4"/>
    </vehicle>