<?xml version="1.0" encoding="UTF-8"?>

<!-- generated on 2026-02-15T19:33:06.499187+08:00 by Eclipse SUMO netconvert 1.25.0
<netconvertConfiguration xmlns:xsi="http://www.w3.org/2001/XMLSchema-instance" xsi:noNamespaceSchemaLocation="http://sumo.dlr.de/xsd/netconvertConfiguration.xsd">

    <input>
        <node-files value="topology/net.nod.xml"/>
        <edge-files value="topology/net.edg.xml"/>
        <connection-files value="topology/net.con.xml"/>
        <tllogic-files value="topology/net.tls.xml"/>
        <type-files value="net.typ.xml"/>
    </input>

    <output>
        <output-file value="network/sim.net.xml"/>
    </output>

    <processing>
        <lefthand value="false"/>
    </processing>

    <junctions>
        <no-turnarounds value="true"/>
        <junctions.corner-detail value="5"/>
        <junctions.limit-turn-speed value="5.5"/>
    </junctions>

    <pedestrian>
        <sidewalks.guess.max-speed value="8.67"/>
        <crossings.guess value="true"/>
        <walkingareas value="true"/>
    </pedestrian>

</netconvertConfiguration>
-->

<net version="1.20" junctionCornerDetail="5" walkingareas="true" limitTurnSpeed="5.50" xmlns:xsi="http://www.w3.org/2001/XMLSchema-instance" xsi:noNamespaceSchemaLocation="http://sumo.dlr.de/xsd/net_file.xsd">

    <location netOffset="0.00,0.00" convBoundary="0.00,0.00,2500.00,2000.00" origBoundary="0.00,0.00,2500.00,2000.00" projParameter="!"/>

    <type id="arterial_4" priority="13" numLanes="4" speed="16.67" width="3.50" sidewalkWidth="5.00"/>
    <type id="arterial_5" priority="14" numLanes="5" speed="16.67" width="3.50" sidewalkWidth="5.00"/>
    <type id="arterial_6" priority="15" numLanes="6" speed="16.67" width="3.50" sidewalkWidth="5.00"/>

    <edge id=":A0_0" function="internal">
        <lane id=":A0_0_0" index="0" disallow="pedestrian" speed="9.75" length="18.26" width="3.50" shape="469.46,492.88 468.35,486.02 465.83,481.30 461.91,478.72 460.65,478.61"/>
    </edge>
    <edge id=":A0_1" function="internal">
        <lane id=":A0_1_0" index="0" disallow="pedestrian" speed="16.67" length="62.86" width="3.50" shape="472.96,492.69 471.99,475.78 471.35,461.03 471.47,446.31 472.76,429.45"/>
        <lane id=":A0_1_1" index="1" disallow="pedestrian" speed="16.67" length="62.86" width="3.50" shape="476.45,492.51 475.49,475.68 474.84,461.13 474.95,446.60 476.24,429.83"/>
        <lane id=":A0_1_2" index="2" disallow="pedestrian" speed="16.67" length="62.86" width="3.50" shape="476.45,492.51 476.03,475.74 476.58,461.32 477.88,446.92 479.72,430.21"/>
    </edge>
    <edge id=":A0_4" function="internal">
        <lane id=":A0_4_0" index="0" disallow="pedestrian" speed="15.52" length="58.32" width="3.50" shape="479.95,492.33 480.15,472.88 484.04,458.65 493.13,450.33 504.85,449.06"/>
        <lane id=":A0_4_1" index="1" disallow="pedestrian" speed="13.81" length="45.09" width="3.50" shape="479.95,492.33 480.61,477.87 484.91,468.21 493.65,463.16 503.59,462.73"/>
    </edge>
    <edge id=":A0_6" function="internal">
        <lane id=":A0_6_0" index="0" disallow="pedestrian" speed="4.93" length="10.22" width="3.50" shape="479.95,492.33 481.56,489.61 483.26,488.65 485.05,489.43 486.94,491.96"/>
    </edge>
    <edge id=":A0_30" function="internal">
        <lane id=":A0_30_0" index="0" disallow="pedestrian" speed="9.75" length="4.07" width="3.50" shape="460.65,478.61 456.59,478.27"/>
    </edge>
    <edge id=":A0_31" function="internal">
        <lane id=":A0_31_0" index="0" disallow="pedestrian" speed="15.52" length="4.08" width="3.50" shape="504.85,449.06 508.91,448.62"/>
        <lane id=":A0_31_1" index="0" disallow="pedestrian" speed="13.81" length="4.04" width="3.50" shape="503.59,462.73 507.62,462.56"/>
    </edge>
    <edge id=":A0_7" function="internal">
        <lane id=":A0_7_0" index="0" disallow="pedestrian" speed="8.93" length="15.77" width="3.50" shape="506.01,479.98 500.47,480.27 496.61,482.29 494.43,486.07 494.30,487.57"/>
    </edge>
    <edge id=":A0_8" function="internal">
        <lane id=":A0_8_0" index="0" disallow="pedestrian" speed="15.80" length="54.62" width="3.50" shape="506.33,476.50 497.22,470.04 485.87,455.98 476.36,440.42 474.13,433.63"/>
        <lane id=":A0_8_1" index="1" disallow="pedestrian" speed="14.83" length="47.56" width="3.50" shape="506.65,473.01 498.83,467.25 489.73,454.64 482.36,440.52 480.78,434.35"/>
    </edge>
    <edge id=":A0_10" function="internal">
        <lane id=":A0_10_0" index="0" disallow="pedestrian" speed="7.32" length="25.56" width="3.50" shape="506.65,473.01 500.52,468.05 498.75,463.49 501.33,459.34 508.27,455.59"/>
    </edge>
    <edge id=":A0_11" function="internal">
        <lane id=":A0_11_0" index="0" disallow="pedestrian" speed="16.67" length="51.72" width="3.50" shape="506.98,469.53 491.90,468.99 481.59,470.29 471.29,472.52 456.23,474.79"/>
        <lane id=":A0_11_1" index="1" disallow="pedestrian" speed="16.67" length="51.72" width="3.50" shape="506.98,469.53 491.82,468.44 481.41,468.54 471.00,469.58 455.86,471.31"/>
        <lane id=":A0_11_2" index="2" disallow="pedestrian" speed="16.67" length="51.72" width="3.50" shape="507.30,466.04 491.94,464.94 481.39,465.03 470.84,466.08 455.50,467.83"/>
        <lane id=":A0_11_3" index="3" disallow="pedestrian" speed="16.67" length="51.72" width="3.50" shape="507.30,466.04 491.84,464.38 481.21,463.28 470.58,463.13 455.14,464.35"/>
    </edge>
    <edge id=":A0_32" function="internal">
        <lane id=":A0_32_0" index="0" disallow="pedestrian" speed="8.93" length="4.04" width="3.50" shape="494.30,487.57 493.93,491.59"/>
    </edge>
    <edge id=":A0_33" function="internal">
        <lane id=":A0_33_0" index="0" disallow="pedestrian" speed="15.80" length="4.39" width="3.50" shape="474.13,433.63 472.76,429.45"/>
        <lane id=":A0_33_1" index="0" disallow="pedestrian" speed="14.83" length="4.27" width="3.50" shape="480.78,434.35 479.72,430.21"/>
    </edge>
    <edge id=":A0_15" function="internal">
        <lane id=":A0_15_0" index="0" disallow="pedestrian" speed="9.45" length="16.31" width="3.50" shape="497.11,432.10 497.39,437.34 499.50,441.25 503.45,443.85 505.30,444.26"/>
    </edge>
    <edge id=":A0_16" function="internal">
        <lane id=":A0_16_0" index="0" disallow="pedestrian" speed="16.67" length="60.78" width="3.50" shape="493.64,431.72 491.58,450.18 490.33,463.57 489.92,476.05 490.43,491.78"/>
        <lane id=":A0_16_1" index="1" disallow="pedestrian" speed="16.67" length="60.78" width="3.50" shape="490.16,431.35 488.10,449.89 486.84,463.47 486.43,476.15 486.94,491.96"/>
        <lane id=":A0_16_2" index="2" disallow="pedestrian" speed="16.67" length="60.78" width="3.50" shape="490.16,431.35 487.55,449.92 485.09,463.57 483.48,476.31 483.44,492.14"/>
    </edge>
    <edge id=":A0_19" function="internal">
        <lane id=":A0_19_0" index="0" disallow="pedestrian" speed="16.67" length="51.21" width="3.50" shape="486.68,430.97 483.22,447.57 476.93,459.83 467.81,467.75 459.76,470.15"/>
        <lane id=":A0_19_1" index="1" disallow="pedestrian" speed="15.66" length="43.87" width="3.50" shape="483.20,430.59 480.17,444.40 474.49,454.62 466.14,461.28 459.05,463.26"/>
    </edge>
    <edge id=":A0_21" function="internal">
        <lane id=":A0_21_0" index="0" disallow="pedestrian" speed="4.93" length="10.22" width="3.50" shape="483.20,430.59 481.17,433.01 479.34,433.69 477.69,432.63 476.24,429.83"/>
    </edge>
    <edge id=":A0_34" function="internal">
        <lane id=":A0_34_0" index="0" disallow="pedestrian" speed="9.45" length="4.03" width="3.50" shape="505.30,444.26 509.24,445.13"/>
    </edge>
    <edge id=":A0_35" function="internal">
        <lane id=":A0_35_0" index="0" disallow="pedestrian" speed="16.67" length="4.07" width="3.50" shape="459.76,470.15 455.86,471.31"/>
        <lane id=":A0_35_1" index="0" disallow="pedestrian" speed="15.66" length="4.06" width="3.50" shape="459.05,463.26 455.14,464.35"/>
    </edge>
    <edge id=":A0_22" function="internal">
        <lane id=":A0_22_0" index="0" disallow="pedestrian" speed="11.67" length="22.17" width="3.50" shape="453.33,446.94 459.64,445.27 464.40,441.74 467.61,436.34 468.38,433.00"/>
    </edge>
    <edge id=":A0_23" function="internal">
        <lane id=":A0_23_0" index="0" disallow="pedestrian" speed="15.28" length="52.23" width="3.50" shape="453.69,450.42 462.86,455.27 474.99,467.45 485.66,481.45 488.63,487.86"/>
        <lane id=":A0_23_1" index="1" disallow="pedestrian" speed="14.31" length="45.24" width="3.50" shape="454.05,453.91 461.75,458.30 471.40,469.40 479.71,482.31 481.95,488.22"/>
    </edge>
    <edge id=":A0_25" function="internal">
        <lane id=":A0_25_0" index="0" disallow="pedestrian" speed="6.62" length="20.45" width="3.50" shape="454.05,453.91 459.64,456.84 461.74,460.14 460.36,463.81 455.50,467.83"/>
    </edge>
    <edge id=":A0_26" function="internal">
        <lane id=":A0_26_0" index="0" disallow="pedestrian" speed="16.67" length="53.78" width="3.50" shape="454.41,457.39 470.49,455.02 481.49,452.75 492.50,451.47 508.59,452.10"/>
        <lane id=":A0_26_1" index="1" disallow="pedestrian" speed="16.67" length="53.78" width="3.50" shape="454.41,457.39 470.36,455.58 481.33,454.51 492.30,454.43 508.27,455.59"/>
        <lane id=":A0_26_2" index="2" disallow="pedestrian" speed="16.67" length="53.78" width="3.50" shape="454.78,460.87 470.52,459.08 481.35,458.02 492.18,457.93 507.94,459.07"/>
        <lane id=":A0_26_3" index="3" disallow="pedestrian" speed="16.67" length="53.78" width="3.50" shape="454.78,460.87 470.42,459.63 481.19,459.77 491.96,460.88 507.62,462.56"/>
    </edge>
    <edge id=":A0_36" function="internal">
        <lane id=":A0_36_0" index="0" disallow="pedestrian" speed="11.67" length="4.03" width="3.50" shape="468.38,433.00 469.28,429.08"/>
    </edge>
    <edge id=":A0_37" function="internal">
        <lane id=":A0_37_0" index="0" disallow="pedestrian" speed="15.28" length="4.31" width="3.50" shape="488.63,487.86 490.43,491.78"/>
        <lane id=":A0_37_1" index="0" disallow="pedestrian" speed="14.31" length="4.20" width="3.50" shape="481.95,488.22 483.44,492.14"/>
    </edge>
    <edge id=":A0_c0" function="crossing" crossingEdges="A0B0 B0A0">
        <lane id=":A0_c0_0" index="0" allow="pedestrian" speed="2.78" length="28.00" width="4.00" shape="495.57,489.50 467.61,490.97" outlineShape="495.68,491.50 467.72,492.97 467.24,488.99 496.02,487.48 495.80,488.24"/>
    </edge>
    <edge id=":A0_c1" function="crossing" crossingEdges="A0A1 A1A0">
        <lane id=":A0_c1_0" index="0" allow="pedestrian" speed="2.78" length="38.50" width="4.00" shape="507.41,443.21 503.86,481.54" outlineShape="509.40,443.39 505.85,481.73 502.58,481.72 501.81,481.91 505.45,442.62 505.87,442.78"/>
    </edge>
    <edge id=":A0_c2" function="crossing" crossingEdges="A0bottom0 bottom0A0">
        <lane id=":A0_c2_0" index="0" allow="pedestrian" speed="2.78" length="31.50" width="4.00" shape="467.32,430.88 498.64,434.28" outlineShape="467.54,428.89 498.85,432.29 498.84,435.38 499.10,436.34 466.81,432.83"/>
    </edge>
    <edge id=":A0_c3" function="crossing" crossingEdges="A0left0 left0A0">
        <lane id=":A0_c3_0" index="0" allow="pedestrian" speed="2.78" length="35.00" width="4.00" shape="458.76,479.81 455.13,445.00" outlineShape="456.77,480.01 453.14,445.20 453.13,445.10 453.14,445.20 457.08,444.38 460.83,480.40 459.91,480.08"/>
    </edge>
    <edge id=":A0_w0" function="walkingarea">
        <lane id=":A0_w0_0" index="0" allow="pedestrian" speed="2.78" length="10.40" width="5.00" shape="456.77,480.01 457.29,484.99 462.72,493.23 467.72,492.97 467.21,488.72 466.17,485.30 464.61,482.72 462.52,480.98 459.91,480.08"/>
    </edge>
    <edge id=":A0_w1" function="walkingarea">
        <lane id=":A0_w1_0" index="0" allow="pedestrian" speed="2.78" length="8.49" width="5.00" shape="495.68,491.50 500.67,491.24 505.39,486.70 505.85,481.73 502.58,481.72 499.95,482.37 497.94,483.67 496.56,485.63 495.80,488.24"/>
    </edge>
    <edge id=":A0_w2" function="walkingarea">
        <lane id=":A0_w2_0" index="0" allow="pedestrian" speed="2.78" length="9.29" width="5.00" shape="509.40,443.39 509.86,438.41 503.83,432.83 498.85,432.29 498.84,435.38 499.54,437.98 500.95,440.08 503.06,441.68 505.87,442.78"/>
    </edge>
    <edge id=":A0_w3" function="walkingarea">
        <lane id=":A0_w3_0" index="0" allow="pedestrian" speed="2.78" length="13.58" width="5.00" shape="467.54,428.89 462.57,428.35 452.63,440.23 453.14,445.20 457.09,444.38 460.42,442.80 463.13,440.46 465.22,437.36 466.69,433.50"/>
    </edge>
    <edge id=":A1_0" function="internal">
        <lane id=":A1_0_0" index="0" disallow="pedestrian" speed="10.77" length="19.96" width="3.50" shape="1047.56,525.85 1040.39,527.06 1035.17,529.71 1031.89,533.78 1031.51,535.34"/>
    </edge>
    <edge id=":A1_1" function="internal">
        <lane id=":A1_1_0" index="0" disallow="pedestrian" speed="16.67" length="53.63" width="3.50" shape="1047.34,522.35 1031.36,523.28 1020.40,523.53 1009.44,523.00 993.50,521.61"/>
        <lane id=":A1_1_1" index="1" disallow="pedestrian" speed="16.67" length="53.63" width="3.50" shape="1047.34,522.35 1031.44,522.73 1020.56,521.78 1009.69,520.06 993.82,518.12"/>
        <lane id=":A1_1_2" index="2" disallow="pedestrian" speed="16.67" length="53.63" width="3.50" shape="1047.13,518.86 1031.38,519.23 1020.61,518.28 1009.86,516.56 994.15,514.64"/>
        <lane id=":A1_1_3" index="3" disallow="pedestrian" speed="16.67" length="53.63" width="3.50" shape="1047.13,518.86 1031.42,518.69 1020.78,516.53 1010.14,513.62 994.47,511.15"/>
    </edge>
    <edge id=":A1_5" function="internal">
        <lane id=":A1_5_0" index="0" disallow="pedestrian" speed="15.54" length="56.63" width="3.50" shape="1046.92,515.37 1029.56,514.26 1018.78,508.04 1013.46,496.25 1012.70,482.41"/>
        <lane id=":A1_5_1" index="1" disallow="pedestrian" speed="14.35" length="47.54" width="3.50" shape="1046.70,511.87 1032.27,510.65 1023.81,504.76 1019.99,494.12 1019.61,482.68"/>
    </edge>
    <edge id=":A1_7" function="internal">
        <lane id=":A1_7_0" index="0" disallow="pedestrian" speed="5.84" length="15.33" width="3.50" shape="1046.70,511.87 1042.61,509.49 1041.14,506.95 1042.29,504.25 1046.06,501.39"/>
    </edge>
    <edge id=":A1_30" function="internal">
        <lane id=":A1_30_0" index="0" disallow="pedestrian" speed="10.77" length="4.07" width="3.50" shape="1031.51,535.34 1030.55,539.30"/>
    </edge>
    <edge id=":A1_31" function="internal">
        <lane id=":A1_31_0" index="0" disallow="pedestrian" speed="15.54" length="4.02" width="3.50" shape="1012.70,482.41 1012.48,478.40"/>
        <lane id=":A1_31_1" index="0" disallow="pedestrian" speed="14.35" length="4.01" width="3.50" shape="1019.61,482.68 1019.48,478.67"/>
    </edge>
    <edge id=":A1_8" function="internal">
        <lane id=":A1_8_0" index="0" disallow="pedestrian" speed="9.00" length="15.49" width="3.50" shape="1033.47,479.22 1034.03,484.62 1036.21,488.37 1040.01,490.47 1041.39,490.58"/>
    </edge>
    <edge id=":A1_9" function="internal">
        <lane id=":A1_9_0" index="0" disallow="pedestrian" speed="16.67" length="60.06" width="3.50" shape="1029.97,479.08 1027.05,539.09"/>
        <lane id=":A1_9_1" index="1" disallow="pedestrian" speed="16.67" length="60.06" width="3.50" shape="1026.47,478.94 1023.56,538.88"/>
        <lane id=":A1_9_2" index="2" disallow="pedestrian" speed="16.67" length="60.06" width="3.50" shape="1026.47,478.94 1020.07,538.68"/>
    </edge>
    <edge id=":A1_12" function="internal">
        <lane id=":A1_12_0" index="0" disallow="pedestrian" speed="15.57" length="54.77" width="3.50" shape="1022.97,478.81 1020.47,498.49 1014.72,512.19 1005.73,519.89 997.57,521.04"/>
        <lane id=":A1_12_1" index="1" disallow="pedestrian" speed="14.31" length="45.46" width="3.50" shape="1022.97,478.81 1020.68,493.90 1015.16,504.32 1006.43,510.07 998.52,510.79"/>
    </edge>
    <edge id=":A1_14" function="internal">
        <lane id=":A1_14_0" index="0" disallow="pedestrian" speed="4.93" length="10.22" width="3.50" shape="1022.97,478.81 1021.12,481.36 1019.34,482.17 1017.63,481.22 1015.98,478.53"/>
    </edge>
    <edge id=":A1_32" function="internal">
        <lane id=":A1_32_0" index="0" disallow="pedestrian" speed="9.00" length="4.04" width="3.50" shape="1041.39,490.58 1045.42,490.91"/>
    </edge>
    <edge id=":A1_33" function="internal">
        <lane id=":A1_33_0" index="0" disallow="pedestrian" speed="15.57" length="4.11" width="3.50" shape="997.57,521.04 993.50,521.61"/>
        <lane id=":A1_33_1" index="0" disallow="pedestrian" speed="14.31" length="4.07" width="3.50" shape="998.52,510.79 994.47,511.15"/>
    </edge>
    <edge id=":A1_15" function="internal">
        <lane id=":A1_15_0" index="0" disallow="pedestrian" speed="9.26" length="16.01" width="3.50" shape="996.40,490.24 1001.72,489.91 1005.58,487.80 1008.01,483.92 1008.30,482.23"/>
    </edge>
    <edge id=":A1_16" function="internal">
        <lane id=":A1_16_0" index="0" disallow="pedestrian" speed="16.67" length="50.42" width="3.50" shape="996.08,493.73 1010.75,495.01 1020.84,495.49 1030.93,495.26 1045.63,494.40"/>
        <lane id=":A1_16_1" index="1" disallow="pedestrian" speed="16.67" length="50.42" width="3.50" shape="995.76,497.21 1010.59,498.51 1020.78,498.99 1030.98,498.76 1045.85,497.90"/>
        <lane id=":A1_16_2" index="2" disallow="pedestrian" speed="16.67" length="50.42" width="3.50" shape="995.44,500.70 1010.43,502.01 1020.73,502.50 1031.04,502.26 1046.06,501.39"/>
        <lane id=":A1_16_3" index="3" disallow="pedestrian" speed="16.67" length="50.42" width="3.50" shape="995.44,500.70 1010.51,502.56 1020.83,504.26 1031.16,505.22 1046.27,504.88"/>
    </edge>
    <edge id=":A1_20" function="internal">
        <lane id=":A1_20_0" index="0" disallow="pedestrian" speed="15.35" length="49.50" width="3.50" shape="995.11,504.18 1009.79,507.54 1020.00,514.47 1025.76,524.99 1026.68,535.06"/>
        <lane id=":A1_20_1" index="1" disallow="pedestrian" speed="14.14" length="41.25" width="3.50" shape="994.79,507.67 1006.48,510.54 1014.59,516.67 1019.12,526.05 1019.76,534.65"/>
    </edge>
    <edge id=":A1_22" function="internal">
        <lane id=":A1_22_0" index="0" disallow="pedestrian" speed="5.84" length="15.33" width="3.50" shape="994.79,507.67 998.47,510.64 999.53,513.38 997.99,515.87 993.82,518.12"/>
    </edge>
    <edge id=":A1_34" function="internal">
        <lane id=":A1_34_0" index="0" disallow="pedestrian" speed="9.26" length="4.04" width="3.50" shape="1008.30,482.23 1008.99,478.26"/>
    </edge>
    <edge id=":A1_35" function="internal">
        <lane id=":A1_35_0" index="0" disallow="pedestrian" speed="15.35" length="4.05" width="3.50" shape="1026.68,535.06 1027.05,539.09"/>
        <lane id=":A1_35_1" index="0" disallow="pedestrian" speed="14.14" length="4.04" width="3.50" shape="1019.76,534.65 1020.07,538.68"/>
    </edge>
    <edge id=":A1_23" function="internal">
        <lane id=":A1_23_0" index="0" disallow="pedestrian" speed="9.66" length="16.49" width="3.50" shape="1006.09,537.86 1005.54,532.74 1003.20,528.91 999.08,526.36 997.12,525.94"/>
    </edge>
    <edge id=":A1_24" function="internal">
        <lane id=":A1_24_0" index="0" disallow="pedestrian" speed="16.67" length="59.83" width="3.50" shape="1009.58,538.06 1012.48,478.40"/>
        <lane id=":A1_24_1" index="1" disallow="pedestrian" speed="16.67" length="59.83" width="3.50" shape="1013.08,538.27 1015.98,478.53"/>
        <lane id=":A1_24_2" index="2" disallow="pedestrian" speed="16.67" length="59.83" width="3.50" shape="1013.08,538.27 1019.48,478.67"/>
    </edge>
    <edge id=":A1_27" function="internal">
        <lane id=":A1_27_0" index="0" disallow="pedestrian" speed="16.14" length="51.18" width="3.50" shape="1016.57,538.47 1019.26,521.34 1025.04,508.87 1033.90,501.05 1041.90,498.94"/>
        <lane id=":A1_27_1" index="1" disallow="pedestrian" speed="14.94" length="43.17" width="3.50" shape="1016.57,538.47 1019.07,525.96 1024.89,516.77 1034.03,510.91 1042.53,509.18"/>
    </edge>
    <edge id=":A1_29" function="internal">
        <lane id=":A1_29_0" index="0" disallow="pedestrian" speed="4.93" length="10.22" width="3.50" shape="1016.57,538.47 1018.47,535.96 1020.27,535.18 1021.97,536.16 1023.56,538.88"/>
    </edge>
    <edge id=":A1_36" function="internal">
        <lane id=":A1_36_0" index="0" disallow="pedestrian" speed="9.66" length="4.03" width="3.50" shape="997.12,525.94 993.18,525.09"/>
    </edge>
    <edge id=":A1_37" function="internal">
        <lane id=":A1_37_0" index="0" disallow="pedestrian" speed="16.14" length="4.08" width="3.50" shape="1041.90,498.94 1045.85,497.90"/>
        <lane id=":A1_37_1" index="0" disallow="pedestrian" speed="14.94" length="4.04" width="3.50" shape="1042.53,509.18 1046.49,508.38"/>
    </edge>
    <edge id=":A1_c0" function="crossing" crossingEdges="A1A2 A2A1">
        <lane id=":A1_c0_0" index="0" allow="pedestrian" speed="2.78" length="38.50" width="4.00" shape="1043.32,489.29 1045.67,527.71" outlineShape="1045.31,489.16 1047.66,527.59 1043.69,528.10 1041.28,488.84 1042.11,489.07"/>
    </edge>
    <edge id=":A1_c1" function="crossing" crossingEdges="A1bottom1 bottom1A1">
        <lane id=":A1_c1_0" index="0" allow="pedestrian" speed="2.78" length="28.00" width="4.00" shape="1007.16,480.19 1035.14,481.29" outlineShape="1007.24,478.19 1035.22,479.29 1035.32,479.29 1035.22,479.29 1035.38,482.48 1035.63,483.31 1006.62,482.17 1006.82,481.60"/>
    </edge>
    <edge id=":A1_c2" function="crossing" crossingEdges="A1A0 A0A1">
        <lane id=":A1_c2_0" index="0" allow="pedestrian" speed="2.78" length="38.50" width="4.00" shape="995.01,527.02 998.56,488.68" outlineShape="993.01,526.93 996.58,488.40 999.70,488.47 1000.61,488.23 996.97,527.57 996.64,527.44"/>
    </edge>
    <edge id=":A1_c3" function="crossing" crossingEdges="A1B1 B1A1">
        <lane id=":A1_c3_0" index="0" allow="pedestrian" speed="2.78" length="28.00" width="4.00" shape="1032.41,537.40 1004.46,535.76" outlineShape="1032.29,539.40 1004.34,537.75 1004.19,534.72 1003.85,533.72 1033.20,535.44 1032.90,536.04"/>
    </edge>
    <edge id=":A1_w0" function="walkingarea">
        <lane id=":A1_w0_0" index="0" allow="pedestrian" speed="2.78" length="12.01" width="5.00" shape="1032.29,539.40 1037.29,539.69 1047.97,532.58 1047.66,527.59 1043.15,528.17 1039.41,529.30 1036.46,530.99 1034.29,533.24 1032.90,536.04"/>
    </edge>
    <edge id=":A1_w1" function="walkingarea">
        <lane id=":A1_w1_0" index="0" allow="pedestrian" speed="2.78" length="8.50" width="5.00" shape="1045.31,489.16 1045.01,484.17 1040.21,479.48 1035.22,479.29 1035.38,482.48 1036.15,485.06 1037.53,487.02 1039.52,488.35 1042.11,489.07"/>
    </edge>
    <edge id=":A1_w2" function="walkingarea">
        <lane id=":A1_w2_0" index="0" allow="pedestrian" speed="2.78" length="8.98" width="5.00" shape="1007.24,478.19 1002.24,477.99 997.03,483.52 996.57,488.50 999.70,488.47 1002.30,487.77 1004.35,486.39 1005.85,484.34 1006.82,481.60"/>
    </edge>
    <edge id=":A1_w3" function="walkingarea">
        <lane id=":A1_w3_0" index="0" allow="pedestrian" speed="2.78" length="9.58" width="5.00" shape="993.02,526.83 992.56,531.81 999.35,537.46 1004.34,537.75 1004.19,534.72 1003.34,532.18 1001.80,530.12 999.57,528.54 996.64,527.44"/>
    </edge>
    <edge id=":A2_0" function="internal">
        <lane id=":A2_0_0" index="0" disallow="pedestrian" speed="9.78" length="16.98" width="3.50" shape="1533.08,497.50 1528.02,498.39 1524.32,501.05 1522.00,505.50 1521.65,507.74"/>
    </edge>
    <edge id=":A2_1" function="internal">
        <lane id=":A2_1_0" index="0" disallow="pedestrian" speed="16.67" length="49.16" width="3.50" shape="1533.08,494.00 1484.39,495.59"/>
        <lane id=":A2_1_1" index="1" disallow="pedestrian" speed="16.67" length="49.16" width="3.50" shape="1533.08,494.00 1484.17,492.10"/>
        <lane id=":A2_1_2" index="2" disallow="pedestrian" speed="16.67" length="49.16" width="3.50" shape="1533.08,490.50 1483.96,488.61"/>
        <lane id=":A2_1_3" index="3" disallow="pedestrian" speed="16.67" length="49.16" width="3.50" shape="1533.08,490.50 1518.39,489.45 1508.40,487.24 1498.41,485.32 1483.75,485.11"/>
    </edge>
    <edge id=":A2_5" function="internal">
        <lane id=":A2_5_0" index="0" disallow="pedestrian" speed="15.75" length="51.08" width="3.50" shape="1533.08,487.00 1519.20,484.77 1508.97,478.08 1502.38,466.93 1500.19,455.29"/>
        <lane id=":A2_5_1" index="1" disallow="pedestrian" speed="14.59" length="43.13" width="3.50" shape="1533.08,483.50 1522.18,481.46 1514.11,475.35 1508.86,465.16 1507.10,454.86"/>
    </edge>
    <edge id=":A2_7" function="internal">
        <lane id=":A2_7_0" index="0" disallow="pedestrian" speed="5.84" length="15.33" width="3.50" shape="1533.08,483.50 1529.14,480.88 1527.83,478.25 1529.14,475.62 1533.08,473.00"/>
    </edge>
    <edge id=":A2_30" function="internal">
        <lane id=":A2_30_0" index="0" disallow="pedestrian" speed="9.78" length="4.03" width="3.50" shape="1521.65,507.74 1521.04,511.72"/>
    </edge>
    <edge id=":A2_31" function="internal">
        <lane id=":A2_31_0" index="0" disallow="pedestrian" speed="15.75" length="4.03" width="3.50" shape="1500.19,455.29 1499.44,451.33"/>
        <lane id=":A2_31_1" index="0" disallow="pedestrian" speed="14.59" length="4.02" width="3.50" shape="1507.10,454.86 1506.43,450.89"/>
    </edge>
    <edge id=":A2_8" function="internal">
        <lane id=":A2_8_0" index="0" disallow="pedestrian" speed="9.65" length="15.97" width="3.50" shape="1520.40,450.02 1521.49,455.48 1523.96,459.38 1527.83,461.72 1529.08,461.91"/>
    </edge>
    <edge id=":A2_9" function="internal">
        <lane id=":A2_9_0" index="0" disallow="pedestrian" speed="16.67" length="61.13" width="3.50" shape="1516.91,450.24 1517.80,466.84 1518.17,480.90 1518.07,494.97 1517.54,511.58"/>
        <lane id=":A2_9_1" index="1" disallow="pedestrian" speed="16.67" length="61.13" width="3.50" shape="1513.41,450.46 1514.31,467.00 1514.67,480.94 1514.57,494.89 1514.04,511.45"/>
        <lane id=":A2_9_2" index="2" disallow="pedestrian" speed="16.67" length="61.13" width="3.50" shape="1513.41,450.46 1513.76,466.98 1512.93,480.87 1511.62,494.77 1510.55,511.31"/>
    </edge>
    <edge id=":A2_12" function="internal">
        <lane id=":A2_12_0" index="0" disallow="pedestrian" speed="15.78" length="54.09" width="3.50" shape="1509.92,450.67 1509.34,469.68 1504.89,483.50 1496.57,492.14 1488.33,494.48"/>
        <lane id=":A2_12_1" index="1" disallow="pedestrian" speed="14.55" length="45.21" width="3.50" shape="1509.92,450.67 1509.05,465.09 1504.40,475.64 1495.96,482.31 1487.70,484.21"/>
    </edge>
    <edge id=":A2_14" function="internal">
        <lane id=":A2_14_0" index="0" disallow="pedestrian" speed="4.93" length="10.22" width="3.50" shape="1509.92,450.67 1508.34,453.40 1506.65,454.39 1504.84,453.62 1502.93,451.11"/>
    </edge>
    <edge id=":A2_32" function="internal">
        <lane id=":A2_32_0" index="0" disallow="pedestrian" speed="9.65" length="4.04" width="3.50" shape="1529.08,461.91 1533.08,462.50"/>
    </edge>
    <edge id=":A2_33" function="internal">
        <lane id=":A2_33_0" index="0" disallow="pedestrian" speed="15.78" length="4.09" width="3.50" shape="1488.33,494.48 1484.39,495.59"/>
        <lane id=":A2_33_1" index="0" disallow="pedestrian" speed="14.55" length="4.05" width="3.50" shape="1487.70,484.21 1483.75,485.11"/>
    </edge>
    <edge id=":A2_15" function="internal">
        <lane id=":A2_15_0" index="0" disallow="pedestrian" speed="9.64" length="16.94" width="3.50" shape="1482.46,464.15 1488.64,463.04 1492.94,460.57 1495.38,456.74 1495.51,455.58"/>
    </edge>
    <edge id=":A2_16" function="internal">
        <lane id=":A2_16_0" index="0" disallow="pedestrian" speed="16.67" length="50.18" width="3.50" shape="1482.68,467.65 1533.08,466.00"/>
        <lane id=":A2_16_1" index="1" disallow="pedestrian" speed="16.67" length="50.18" width="3.50" shape="1482.89,471.14 1533.08,469.50"/>
        <lane id=":A2_16_2" index="2" disallow="pedestrian" speed="16.67" length="50.18" width="3.50" shape="1483.10,474.63 1533.08,473.00"/>
        <lane id=":A2_16_3" index="3" disallow="pedestrian" speed="16.67" length="50.18" width="3.50" shape="1483.10,474.63 1497.93,474.28 1508.08,474.99 1518.23,475.99 1533.08,476.50"/>
    </edge>
    <edge id=":A2_20" function="internal">
        <lane id=":A2_20_0" index="0" disallow="pedestrian" speed="15.14" length="53.42" width="3.50" shape="1483.32,478.13 1500.01,478.93 1510.77,484.28 1516.36,494.92 1517.26,507.57"/>
        <lane id=":A2_20_1" index="1" disallow="pedestrian" speed="13.89" length="44.17" width="3.50" shape="1483.53,481.62 1497.26,482.55 1505.71,487.60 1509.82,497.08 1510.34,507.30"/>
    </edge>
    <edge id=":A2_22" function="internal">
        <lane id=":A2_22_0" index="0" disallow="pedestrian" speed="5.84" length="15.33" width="3.50" shape="1483.53,481.62 1487.62,484.00 1489.09,486.54 1487.94,489.24 1484.17,492.10"/>
    </edge>
    <edge id=":A2_34" function="internal">
        <lane id=":A2_34_0" index="0" disallow="pedestrian" speed="9.64" length="4.06" width="3.50" shape="1495.51,455.58 1495.95,451.55"/>
    </edge>
    <edge id=":A2_35" function="internal">
        <lane id=":A2_35_0" index="0" disallow="pedestrian" speed="15.14" length="4.02" width="3.50" shape="1517.26,507.57 1517.54,511.58"/>
        <lane id=":A2_35_1" index="0" disallow="pedestrian" speed="13.89" length="4.02" width="3.50" shape="1510.34,507.30 1510.55,511.31"/>
    </edge>
    <edge id=":A2_23" function="internal">
        <lane id=":A2_23_0" index="0" disallow="pedestrian" speed="9.00" length="15.49" width="3.50" shape="1496.56,510.78 1495.99,505.38 1493.81,501.63 1490.01,499.53 1488.63,499.42"/>
    </edge>
    <edge id=":A2_24" function="internal">