<?xml version='1.0' encoding='utf-8'?>

<routes xmlns:xsi="http://www.w3.org/2001/XMLSchema-instance" xsi:noNamespaceSchemaLocation="http://sumo.dlr.de/xsd/routes_file.xsd">

    <vType id="sedan" vClass="passenger" length="4.5" width="1.8" height="1.5" accel="2.6" decel="4.5" sigma="0.5" speedFactor="1.0" speedDev="0.1" color="0.8,0.8,0.8" />

    <flow id="sedan_bottom0A0" type="sedan" from="bottom0A0" begin="0" end="3600" probability="0.067" />
    <flow id="sedan_bottom1A1" type="sedan" from="bottom1A1" begin="0" end="3600" probability="0.0626" />
    <flow id="sedan_bottom2A2" type="sedan" from="bottom2A2" begin="0" end="3600" probability="0.0637" />
    <flow id="sedan_left0A0" type="sedan" from="left0A0" begin="0" end="3600" probability="0.0681" />
    <flow id="sedan_left1B0" type="sedan" from="left1B0" begin="0" end="3600" probability="0.0648" />
    <flow id="sedan_left2C0" type="sedan" from="left2C0" begin="0" end="3600" probability="0.0691" />
    <flow id="sedan_right0A2" type="sedan" from="right0A2" begin="0" end="3600" probability="0.0616" />
    <flow id="sedan_right1B2" type="sedan" from="right1B2" begin="0" end="3600" probability="0.0637" />
    <flow id="sedan_right2C2" type="sedan" from="right2C2" begin="0" end="3600" probability="0.0626" />
    <flow id="sedan_top0C0" type="sedan" from="top0C0" begin="0" end="3600" probability="0.0659" />
    <flow id="sedan_top1C1" type="sedan" from="top1C1" begin="0" end="3600" probability="0.0648" />
    <flow id="sedan_top2C2" type="sedan" from="top2C2" begin="0" end="3600" probability="0.0616" />

</routes>