<?xml version='1.0' encoding='utf-8'?>

<routes xmlns:xsi="http://www.w3.org/2001/XMLSchema-instance" xsi:noNamespaceSchemaLocation="http://sumo.dlr.de/xsd/routes_file.xsd">

    <vType id="suv" vClass="passenger" length="5.0" width="2.0" height="1.8" accel="2.2" decel="4.0" sigma="0.5" speedFactor="0.95" speedDev="0.1" color="0.3,0.3,0.6" />

    <flow id="suv_bottom0A0" type="suv" from="bottom0A0" begin="0" end="3600" probability="0.0437" />
    <flow id="suv_bottom1A1" type="suv" from="bottom1A1" begin="0" end="3600" probability="0.0405" />
    <flow id="suv_bottom2A2" type="suv" from="bottom2A2" begin="0" end="3600" probability="0.0413" />
    <flow id="suv_left0A0" type="suv" from="left0A0" begin="0" end="3600" probability="0.0446" />
    <flow id="suv_left1B0" type="suv" from="left1B0" begin="0" end="3600" probability="0.0421" />
    <flow id="suv_left2C0" type="suv" from="left2C0" begin="0" end="3600" probability="0.0454" />
    <flow id="suv_right0A2" type="suv" from="right0A2" begin="0" end="3600" probability="0.0397" />
    <flow id="suv_right1B2" type="suv" from="right1B2" begin="0" end="3600" probability="0.0413" />
    <flow id="suv_right2C2" type="suv" from="right2C2" begin="0" end="3600" probability="0.0405" />
    <flow id="suv_top0C0" type="suv" from="top0C0" begin="0" end="3600" probability="0.043" />
    <flow id="suv_top1C1" type="suv" from="top1C1" begin="0" end="3600" probability="0.0421" />
    <flow id="suv_top2C2" type="suv" from="top2C2" begin="0" end="3600" probability="0.0397" />

</routes>