<?xml version="1.0" encoding="UTF-8"?>

<!-- generated on 2026-04-03T15:31:06.449056+08:00 by Eclipse SUMO netconvert 1.25.0
<netconvertConfiguration xmlns:xsi="http://www.w3.org/2001/XMLSchema-instance" xsi:noNamespaceSchemaLocation="http://sumo.dlr.de/xsd/netconvertConfiguration.xsd">

    <input>
        <node-files value="topology/net.nod.xml"/>
        <edge-files value="topology/net.edg.xml"/>
        <connection-files value="topology/net.con.xml"/>
        <tllogic-files value="topology/net.tls.xml"/>
        <type-files value="net.typ.xml"/>
    </input>

    <output>
        <output-file value="network/sim.net.xml"/>
    </output>

    <processing>
        <lefthand value="false"/>
    </processing>

    <junctions>
        <no-turnarounds value="true"/>
        <junctions.corner-detail value="5"/>
        <junctions.limit-turn-speed value="5.5"/>
    </junctions>

    <pedestrian>
        <sidewalks.guess.max-speed value="8.67"/>
        <crossings.guess value="true"/>
        <walkingareas value="true"/>
    </pedestrian>

</netconvertConfiguration>
-->

<net version="1.20" junctionCornerDetail="5" walkingareas="true" limitTurnSpeed="5.50" xmlns:xsi="http://www.w3.org/2001/XMLSchema-instance" xsi:noNamespaceSchemaLocation="http://sumo.dlr.de/xsd/net_file.xsd">

    <location netOffset="-97.57,-91.93" convBoundary="0.00,0.00,1609.66,1612.03" origBoundary="97.57,91.93,1707.23,1703.96" projParameter="!"/>

    <type id="arterial_3" priority="13" numLanes="3" speed="16.67" width="3.50" sidewalkWidth="5.00"/>
    <type id="arterial_4" priority="14" numLanes="4" speed="16.67" width="3.50" sidewalkWidth="5.00"/>

    <edge id=":A0_0" function="internal">
        <lane id=":A0_0_0" index="0" disallow="pedestrian" speed="8.05" length="10.83" width="3.50" shape="405.76,388.99 404.97,385.00 403.07,382.30 400.04,380.87 399.93,380.87"/>
    </edge>
    <edge id=":A0_1" function="internal">
        <lane id=":A0_1_0" index="0" disallow="pedestrian" speed="16.67" length="38.45" width="3.50" shape="409.26,388.82 404.72,350.51"/>
        <lane id=":A0_1_1" index="1" disallow="pedestrian" speed="16.67" length="38.45" width="3.50" shape="409.26,388.82 408.22,350.49"/>
    </edge>
    <edge id=":A0_3" function="internal">
        <lane id=":A0_3_0" index="0" disallow="pedestrian" speed="11.74" length="29.88" width="3.50" shape="412.76,388.64 413.42,378.88 416.82,372.77 423.31,369.71 429.23,369.38"/>
    </edge>
    <edge id=":A0_4" function="internal">
        <lane id=":A0_4_0" index="0" disallow="pedestrian" speed="3.82" length="5.11" width="3.50" shape="412.76,388.64 413.56,387.29 414.42,386.81 415.31,387.20 416.25,388.47"/>
    </edge>
    <edge id=":A0_19" function="internal">
        <lane id=":A0_19_0" index="0" disallow="pedestrian" speed="8.05" length="4.04" width="3.50" shape="399.93,380.87 395.90,380.73"/>
    </edge>
    <edge id=":A0_20" function="internal">
        <lane id=":A0_20_0" index="0" disallow="pedestrian" speed="11.74" length="4.02" width="3.50" shape="429.23,369.38 433.24,369.16"/>
    </edge>
    <edge id=":A0_5" function="internal">
        <lane id=":A0_5_0" index="0" disallow="pedestrian" speed="7.95" length="10.78" width="3.50" shape="432.79,379.65 428.45,380.02 425.41,381.55 423.78,384.09"/>
    </edge>
    <edge id=":A0_6" function="internal">
        <lane id=":A0_6_0" index="0" disallow="pedestrian" speed="16.67" length="37.49" width="3.50" shape="432.94,376.15 421.83,375.71 414.20,375.67 406.60,376.14 395.53,377.25"/>
    </edge>
    <edge id=":A0_7" function="internal">
        <lane id=":A0_7_0" index="0" disallow="pedestrian" speed="12.51" length="30.72" width="3.50" shape="433.09,372.66 423.79,370.93 417.12,366.66 413.10,359.84 412.31,354.47"/>
    </edge>
    <edge id=":A0_8" function="internal">
        <lane id=":A0_8_0" index="0" disallow="pedestrian" speed="3.82" length="5.11" width="3.50" shape="433.09,372.66 431.82,371.73 431.42,370.83 431.89,369.98 433.24,369.16"/>
    </edge>
    <edge id=":A0_21" function="internal">
        <lane id=":A0_21_0" index="0" disallow="pedestrian" speed="7.95" length="4.09" width="3.50" shape="423.78,384.09 423.67,384.25 423.24,388.12"/>
    </edge>
    <edge id=":A0_22" function="internal">
        <lane id=":A0_22_0" index="0" disallow="pedestrian" speed="12.51" length="4.04" width="3.50" shape="412.31,354.47 411.72,350.48"/>
    </edge>
    <edge id=":A0_9" function="internal">
        <lane id=":A0_9_0" index="0" disallow="pedestrian" speed="7.83" length="8.85" width="3.50" shape="425.72,350.40 426.24,353.89 427.74,356.43 429.73,357.71"/>
    </edge>
    <edge id=":A0_10" function="internal">
        <lane id=":A0_10_0" index="0" disallow="pedestrian" speed="16.67" length="38.03" width="3.50" shape="422.22,350.42 419.75,388.29"/>
        <lane id=":A0_10_1" index="1" disallow="pedestrian" speed="16.67" length="38.03" width="3.50" shape="418.72,350.44 416.25,388.47"/>
    </edge>
    <edge id=":A0_12" function="internal">
        <lane id=":A0_12_0" index="0" disallow="pedestrian" speed="12.69" length="30.30" width="3.50" shape="415.22,350.46 414.01,359.86 410.27,366.88 403.98,371.51 399.08,372.77"/>
    </edge>
    <edge id=":A0_13" function="internal">
        <lane id=":A0_13_0" index="0" disallow="pedestrian" speed="3.82" length="5.11" width="3.50" shape="415.22,350.46 414.35,351.77 413.48,352.22 412.60,351.78 411.72,350.48"/>
    </edge>
    <edge id=":A0_23" function="internal">
        <lane id=":A0_23_0" index="0" disallow="pedestrian" speed="7.83" length="4.11" width="3.50" shape="429.73,357.71 430.22,358.02 433.69,358.67"/>
    </edge>
    <edge id=":A0_24" function="internal">
        <lane id=":A0_24_0" index="0" disallow="pedestrian" speed="12.69" length="4.04" width="3.50" shape="399.08,372.77 395.16,373.77"/>
    </edge>
    <edge id=":A0_14" function="internal">
        <lane id=":A0_14_0" index="0" disallow="pedestrian" speed="8.10" length="9.30" width="3.50" shape="393.70,359.84 397.01,358.96 399.37,357.12 400.66,354.54"/>
    </edge>
    <edge id=":A0_15" function="internal">
        <lane id=":A0_15_0" index="0" disallow="pedestrian" speed="16.67" length="39.30" width="3.50" shape="394.07,363.32 405.74,362.15 413.77,361.65 421.81,361.70 433.54,362.17"/>
        <lane id=":A0_15_1" index="1" disallow="pedestrian" speed="16.67" length="39.30" width="3.50" shape="394.43,366.80 405.96,365.65 413.88,365.16 421.82,365.20 433.39,365.66"/>
    </edge>
    <edge id=":A0_17" function="internal">
        <lane id=":A0_17_0" index="0" disallow="pedestrian" speed="11.65" length="28.44" width="3.50" shape="394.80,370.29 403.80,370.62 410.38,373.76 414.53,379.71 415.47,384.50"/>
    </edge>
    <edge id=":A0_18" function="internal">
        <lane id=":A0_18_0" index="0" disallow="pedestrian" speed="3.82" length="5.11" width="3.50" shape="394.80,370.29 396.19,371.02 396.72,371.84 396.38,372.76 395.16,373.77"/>
    </edge>
    <edge id=":A0_25" function="internal">
        <lane id=":A0_25_0" index="0" disallow="pedestrian" speed="8.10" length="4.06" width="3.50" shape="400.66,354.54 400.77,354.31 401.22,350.53"/>
    </edge>
    <edge id=":A0_26" function="internal">
        <lane id=":A0_26_0" index="0" disallow="pedestrian" speed="11.65" length="4.04" width="3.50" shape="415.47,384.50 416.25,388.47"/>
    </edge>
    <edge id=":A0_c0" function="crossing" crossingEdges="A0B0 B0A0">
        <lane id=":A0_c0_0" index="0" allow="pedestrian" speed="2.78" length="21.00" width="4.00" shape="424.89,386.03 403.92,387.08" outlineShape="424.99,388.03 404.02,389.08 403.92,389.08 404.02,389.08 403.69,386.84 403.00,385.12 425.86,383.98 425.69,384.19 425.11,385.91"/>
    </edge>
    <edge id=":A0_c1" function="crossing" crossingEdges="A0A1 A1A0">
        <lane id=":A0_c1_0" index="0" allow="pedestrian" speed="2.78" length="24.50" width="4.00" shape="431.77,356.83 430.72,381.31" outlineShape="433.77,356.92 432.72,381.40 432.71,381.50 432.72,381.40 430.26,381.49 428.69,381.88 429.81,355.72 430.28,356.08 431.85,356.66"/>
    </edge>
    <edge id=":A0_c2" function="crossing" crossingEdges="A0bottom0 bottom0A0">
        <lane id=":A0_c2_0" index="0" allow="pedestrian" speed="2.78" length="28.00" width="4.00" shape="399.48,352.54 427.48,352.39" outlineShape="399.47,350.54 427.47,350.39 427.66,352.31 428.19,353.90 428.52,354.38 398.78,354.55 399.32,352.68"/>
    </edge>
    <edge id=":A0_c3" function="crossing" crossingEdges="A0left0 left0A0">
        <lane id=":A0_c3_0" index="0" allow="pedestrian" speed="2.78" length="24.50" width="4.00" shape="398.07,382.26 395.51,357.89" outlineShape="396.09,382.57 393.51,358.00 395.35,357.72 396.84,356.98 397.37,356.49 400.14,382.81 398.40,382.43"/>
    </edge>
    <edge id=":A0_w0" function="walkingarea">
        <lane id=":A0_w0_0" index="0" allow="pedestrian" speed="2.78" length="6.05" width="5.00" shape="396.08,382.47 396.60,387.44 399.02,389.33 404.02,389.08 403.69,386.84 402.97,385.05 401.85,383.72 400.32,382.85 398.40,382.43"/>
    </edge>
    <edge id=":A0_w1" function="walkingarea">
        <lane id=":A0_w1_0" index="0" allow="pedestrian" speed="2.78" length="5.96" width="5.00" shape="424.99,388.03 429.98,387.78 432.50,386.39 432.72,381.40 430.26,381.49 428.27,381.98 426.75,382.88 425.69,384.19 425.11,385.91"/>
    </edge>
    <edge id=":A0_w2" function="walkingarea">
        <lane id=":A0_w2_0" index="0" allow="pedestrian" speed="2.78" length="5.27" width="5.00" shape="433.77,356.92 433.98,351.93 432.47,350.36 427.47,350.39 427.66,352.31 428.19,353.90 429.06,355.15 430.28,356.08 431.85,356.66"/>
    </edge>
    <edge id=":A0_w3" function="walkingarea">
        <lane id=":A0_w3_0" index="0" allow="pedestrian" speed="2.78" length="5.63" width="5.00" shape="399.47,350.54 394.47,350.57 392.99,353.13 393.52,358.10 395.35,357.72 396.84,356.98 398.00,355.90 398.83,354.46 399.32,352.68"/>
    </edge>
    <edge id=":A1_0" function="internal">
        <lane id=":A1_0_0" index="0" disallow="pedestrian" speed="9.52" length="15.27" width="3.50" shape="776.26,405.05 775.32,400.33 772.84,396.87 768.82,394.69 767.22,394.43"/>
    </edge>
    <edge id=":A1_1" function="internal">
        <lane id=":A1_1_0" index="0" disallow="pedestrian" speed="16.67" length="40.10" width="3.50" shape="779.76,404.95 776.21,364.88"/>
        <lane id=":A1_1_1" index="1" disallow="pedestrian" speed="16.67" length="40.10" width="3.50" shape="779.76,404.95 779.71,364.97"/>
    </edge>
    <edge id=":A1_3" function="internal">
        <lane id=":A1_3_0" index="0" disallow="pedestrian" speed="11.57" length="29.34" width="3.50" shape="783.26,404.84 784.04,395.18 787.38,389.04 793.69,386.03 799.35,385.86"/>
    </edge>
    <edge id=":A1_4" function="internal">
        <lane id=":A1_4_0" index="0" disallow="pedestrian" speed="3.82" length="5.11" width="3.50" shape="783.26,404.84 784.09,403.50 784.95,403.04 785.84,403.45 786.76,404.73"/>
    </edge>
    <edge id=":A1_18" function="internal">
        <lane id=":A1_18_0" index="0" disallow="pedestrian" speed="9.52" length="4.03" width="3.50" shape="767.22,394.43 763.25,393.78"/>
    </edge>
    <edge id=":A1_19" function="internal">
        <lane id=":A1_19_0" index="0" disallow="pedestrian" speed="11.57" length="4.03" width="3.50" shape="799.35,385.86 803.38,385.75"/>
    </edge>
    <edge id=":A1_5" function="internal">
        <lane id=":A1_5_0" index="0" disallow="pedestrian" speed="7.72" length="10.09" width="3.50" shape="802.51,396.21 798.57,396.45 795.80,397.91 794.26,400.50"/>
    </edge>
    <edge id=":A1_6" function="internal">
        <lane id=":A1_6_0" index="0" disallow="pedestrian" speed="16.67" length="39.48" width="3.50" shape="802.80,392.72 763.39,390.29"/>
    </edge>
    <edge id=":A1_7" function="internal">
        <lane id=":A1_7_0" index="0" disallow="pedestrian" speed="12.63" length="31.20" width="3.50" shape="803.09,389.24 794.18,387.09 787.89,382.34 784.24,375.00 783.63,369.07"/>
    </edge>
    <edge id=":A1_8" function="internal">
        <lane id=":A1_8_0" index="0" disallow="pedestrian" speed="3.82" length="5.11" width="3.50" shape="803.09,389.24 801.85,388.25 801.49,387.35 802.00,386.51 803.38,385.75"/>
    </edge>
    <edge id=":A1_20" function="internal">
        <lane id=":A1_20_0" index="0" disallow="pedestrian" speed="7.72" length="4.06" width="3.50" shape="794.26,400.50 794.20,400.60 793.75,404.52"/>
    </edge>
    <edge id=":A1_21" function="internal">
        <lane id=":A1_21_0" index="0" disallow="pedestrian" speed="12.63" length="4.03" width="3.50" shape="783.63,369.07 783.21,365.06"/>
    </edge>
    <edge id=":A1_9" function="internal">
        <lane id=":A1_9_0" index="0" disallow="pedestrian" speed="9.40" length="14.95" width="3.50" shape="793.71,365.33 794.23,370.88 796.11,374.97 799.35,377.60 800.02,377.77"/>
    </edge>
    <edge id=":A1_10" function="internal">
        <lane id=":A1_10_0" index="0" disallow="pedestrian" speed="16.67" length="39.39" width="3.50" shape="790.21,365.24 790.25,404.63"/>
    </edge>
    <edge id=":A1_11" function="internal">
        <lane id=":A1_11_0" index="0" disallow="pedestrian" speed="12.46" length="32.25" width="3.50" shape="786.71,365.15 785.05,374.98 780.63,381.86 773.46,385.80 767.56,386.39"/>
    </edge>
    <edge id=":A1_12" function="internal">
        <lane id=":A1_12_0" index="0" disallow="pedestrian" speed="3.82" length="5.11" width="3.50" shape="786.71,365.15 785.80,366.44 784.92,366.86 784.05,366.40 783.21,365.06"/>
    </edge>
    <edge id=":A1_22" function="internal">
        <lane id=":A1_22_0" index="0" disallow="pedestrian" speed="9.40" length="4.06" width="3.50" shape="800.02,377.77 803.95,378.77"/>
    </edge>
    <edge id=":A1_23" function="internal">
        <lane id=":A1_23_0" index="0" disallow="pedestrian" speed="12.46" length="4.04" width="3.50" shape="767.56,386.39 763.54,386.79"/>
    </edge>
    <edge id=":A1_13" function="internal">
        <lane id=":A1_13_0" index="0" disallow="pedestrian" speed="7.78" length="9.33" width="3.50" shape="764.14,372.80 767.81,372.43 770.47,370.98 771.88,368.77"/>
    </edge>
    <edge id=":A1_14" function="internal">
        <lane id=":A1_14_0" index="0" disallow="pedestrian" speed="16.67" length="40.10" width="3.50" shape="763.99,376.30 775.84,377.36 783.87,378.98 791.88,380.75 803.67,382.26"/>
        <lane id=":A1_14_1" index="1" disallow="pedestrian" speed="16.67" length="40.10" width="3.50" shape="763.84,379.79 775.64,380.85 783.63,382.47 791.60,384.24 803.38,385.75"/>
    </edge>
    <edge id=":A1_16" function="internal">
        <lane id=":A1_16_0" index="0" disallow="pedestrian" speed="12.73" length="31.29" width="3.50" shape="763.69,383.29 773.55,384.99 780.68,389.13 785.08,395.71 786.02,400.75"/>
    </edge>
    <edge id=":A1_17" function="internal">
        <lane id=":A1_17_0" index="0" disallow="pedestrian" speed="3.82" length="5.11" width="3.50" shape="763.69,383.29 764.97,384.22 765.37,385.11 764.89,385.97 763.54,386.79"/>
    </edge>
    <edge id=":A1_24" function="internal">
        <lane id=":A1_24_0" index="0" disallow="pedestrian" speed="7.78" length="4.10" width="3.50" shape="771.88,368.77 772.10,368.43 772.72,364.79"/>
    </edge>
    <edge id=":A1_25" function="internal">
        <lane id=":A1_25_0" index="0" disallow="pedestrian" speed="12.73" length="4.05" width="3.50" shape="786.02,400.75 786.76,404.73"/>
    </edge>
    <edge id=":A1_c0" function="crossing" crossingEdges="A1B1 B1A1">
        <lane id=":A1_c0_0" index="0" allow="pedestrian" speed="2.78" length="21.00" width="4.00" shape="795.44,402.47 774.45,403.11" outlineShape="795.50,404.47 774.51,405.11 774.41,405.11 774.51,405.11 774.12,402.31 773.61,401.13 796.27,400.44 796.17,400.59 795.63,402.31"/>
    </edge>
    <edge id=":A1_c1" function="crossing" crossingEdges="A1A2 A2A1">
        <lane id=":A1_c1_0" index="0" allow="pedestrian" speed="2.78" length="21.00" width="4.00" shape="802.11,376.86 800.37,397.79" outlineShape="804.10,377.03 802.36,397.96 800.21,397.97 798.45,398.42 798.30,398.52 800.18,375.90 801.38,376.50"/>
    </edge>
    <edge id=":A1_c2" function="crossing" crossingEdges="A1bottom1 bottom1A1">
        <lane id=":A1_c2_0" index="0" allow="pedestrian" speed="2.78" length="24.50" width="4.00" shape="770.91,366.75 795.41,367.37" outlineShape="770.97,364.75 795.46,365.37 795.62,368.73 795.78,369.38 769.88,368.72 770.14,368.38 770.73,366.75"/>
    </edge>
    <edge id=":A1_c3" function="crossing" crossingEdges="A1A0 A0A1">
        <lane id=":A1_c3_0" index="0" allow="pedestrian" speed="2.78" length="24.50" width="4.00" shape="765.17,395.62 766.22,371.14" outlineShape="763.17,395.53 764.22,371.05 764.22,370.95 764.22,371.05 766.23,370.96 767.89,370.48 768.26,370.24 767.15,396.11 766.56,395.93"/>
    </edge>
    <edge id=":A1_w0" function="walkingarea">
        <lane id=":A1_w0_0" index="0" allow="pedestrian" speed="2.78" length="9.00" width="5.00" shape="763.17,395.53 762.96,400.53 769.51,405.26 774.51,405.11 774.12,402.31 773.13,400.00 771.54,398.16 769.35,396.80 766.56,395.93"/>
    </edge>
    <edge id=":A1_w1" function="walkingarea">
        <lane id=":A1_w1_0" index="0" allow="pedestrian" speed="2.78" length="5.49" width="5.00" shape="795.50,404.47 800.50,404.31 801.95,402.94 802.36,397.96 800.21,397.97 798.45,398.42 797.11,399.29 796.17,400.59 795.63,402.31"/>
    </edge>
    <edge id=":A1_w2" function="walkingarea">
        <lane id=":A1_w2_0" index="0" allow="pedestrian" speed="2.78" length="8.78" width="5.00" shape="804.10,377.03 804.51,372.04 800.46,365.50 795.46,365.37 795.62,368.73 796.29,371.52 797.48,373.74 799.17,375.40 801.38,376.50"/>
    </edge>
    <edge id=":A1_w3" function="walkingarea">
        <lane id=":A1_w3_0" index="0" allow="pedestrian" speed="2.78" length="5.36" width="5.00" shape="770.97,364.75 765.97,364.62 764.43,366.06 764.22,371.05 766.23,370.96 767.89,370.48 769.19,369.62 770.14,368.38 770.73,366.75"/>
    </edge>
    <edge id=":A2_0" function="internal">
        <lane id=":A2_0_0" index="0" disallow="pedestrian" speed="8.64" length="10.85" width="3.50" shape="1240.15,430.39 1236.85,431.13 1234.34,433.13 1232.61,436.37 1232.49,436.94"/>
    </edge>
    <edge id=":A2_1" function="internal">
        <lane id=":A2_1_0" index="0" disallow="pedestrian" speed="16.67" length="39.99" width="3.50" shape="1240.04,426.89 1228.18,427.20 1220.05,427.15 1211.94,426.68 1200.11,425.71"/>
    </edge>
    <edge id=":A2_2" function="internal">
        <lane id=":A2_2_0" index="0" disallow="pedestrian" speed="11.96" length="28.92" width="3.50" shape="1239.93,423.40 1231.02,422.38 1224.57,418.71 1220.58,412.40 1219.73,407.41"/>
    </edge>
    <edge id=":A2_3" function="internal">
        <lane id=":A2_3_0" index="0" disallow="pedestrian" speed="3.82" length="5.11" width="3.50" shape="1239.93,423.40 1238.60,422.56 1238.13,421.70 1238.54,420.81 1239.83,419.90"/>
    </edge>
    <edge id=":A2_18" function="internal">
        <lane id=":A2_18_0" index="0" disallow="pedestrian" speed="8.64" length="4.02" width="3.50" shape="1232.49,436.94 1231.67,440.88"/>
    </edge>
    <edge id=":A2_19" function="internal">
        <lane id=":A2_19_0" index="0" disallow="pedestrian" speed="11.96" length="4.04" width="3.50" shape="1219.73,407.41 1219.05,403.43"/>
    </edge>
    <edge id=":A2_4" function="internal">
        <lane id=":A2_4_0" index="0" disallow="pedestrian" speed="8.49" length="11.96" width="3.50" shape="1229.55,403.12 1230.29,407.51 1232.21,410.61 1235.32,412.40 1235.60,412.43"/>
    </edge>
    <edge id=":A2_5" function="internal">
        <lane id=":A2_5_0" index="0" disallow="pedestrian" speed="16.67" length="37.21" width="3.50" shape="1226.05,403.23 1226.89,414.31 1228.07,421.90 1228.77,429.47 1228.19,440.50"/>
        <lane id=":A2_5_1" index="1" disallow="pedestrian" speed="16.67" length="37.21" width="3.50" shape="1226.05,403.23 1226.34,414.20 1226.32,421.72 1225.82,429.21 1224.71,440.13"/>
    </edge>
    <edge id=":A2_7" function="internal">
        <lane id=":A2_7_0" index="0" disallow="pedestrian" speed="11.85" length="31.00" width="3.50" shape="1222.55,403.33 1221.56,413.29 1217.70,419.34 1210.73,422.11 1204.42,422.18"/>
    </edge>
    <edge id=":A2_8" function="internal">
        <lane id=":A2_8_0" index="0" disallow="pedestrian" speed="3.82" length="5.11" width="3.50" shape="1222.55,403.33 1221.72,404.67 1220.85,405.13 1219.97,404.72 1219.05,403.43"/>
    </edge>
    <edge id=":A2_20" function="internal">
        <lane id=":A2_20_0" index="0" disallow="pedestrian" speed="8.49" length="4.04" width="3.50" shape="1235.60,412.43 1239.62,412.90"/>
    </edge>
    <edge id=":A2_21" function="internal">
        <lane id=":A2_21_0" index="0" disallow="pedestrian" speed="11.85" length="4.02" width="3.50" shape="1204.42,422.18 1200.40,422.23"/>
    </edge>
    <edge id=":A2_9" function="internal">
        <lane id=":A2_9_0" index="0" disallow="pedestrian" speed="8.11" length="11.67" width="3.50" shape="1201.27,411.76 1206.09,411.60 1209.49,410.19 1211.39,407.65"/>
    </edge>
    <edge id=":A2_10" function="internal">
        <lane id=":A2_10_0" index="0" disallow="pedestrian" speed="16.67" length="38.80" width="3.50" shape="1200.98,415.25 1212.46,416.19 1220.33,416.65 1228.21,416.69 1239.72,416.40"/>
    </edge>
    <edge id=":A2_11" function="internal">
        <lane id=":A2_11_0" index="0" disallow="pedestrian" speed="11.98" length="29.57" width="3.50" shape="1200.69,418.74 1210.44,420.76 1217.12,424.93 1220.71,431.27 1220.98,435.71"/>
    </edge>
    <edge id=":A2_12" function="internal">
        <lane id=":A2_12_0" index="0" disallow="pedestrian" speed="3.82" length="5.11" width="3.50" shape="1200.69,418.74 1201.92,419.72 1202.29,420.63 1201.78,421.46 1200.40,422.23"/>
    </edge>
    <edge id=":A2_22" function="internal">
        <lane id=":A2_22_0" index="0" disallow="pedestrian" speed="8.11" length="4.09" width="3.50" shape="1211.39,407.65 1211.48,407.53 1212.06,403.63"/>
    </edge>
    <edge id=":A2_23" function="internal">
        <lane id=":A2_23_0" index="0" disallow="pedestrian" speed="11.98" length="4.06" width="3.50" shape="1220.98,435.71 1221.23,439.76"/>
    </edge>
    <edge id=":A2_13" function="internal">
        <lane id=":A2_13_0" index="0" disallow="pedestrian" speed="7.77" length="9.39" width="3.50" shape="1207.31,438.26 1207.18,434.56 1205.88,431.82 1203.75,430.26"/>
    </edge>
    <edge id=":A2_14" function="internal">
        <lane id=":A2_14_0" index="0" disallow="pedestrian" speed="16.67" length="35.77" width="3.50" shape="1210.79,438.64 1212.40,428.21 1214.07,421.12 1215.29,414.01 1215.56,403.53"/>
        <lane id=":A2_14_1" index="1" disallow="pedestrian" speed="16.67" length="35.77" width="3.50" shape="1214.27,439.01 1215.90,428.44 1217.57,421.26 1218.80,414.05 1219.05,403.43"/>
    </edge>
    <edge id=":A2_16" function="internal">
        <lane id=":A2_16_0" index="0" disallow="pedestrian" speed="12.57" length="28.62" width="3.50" shape="1217.75,439.38 1219.89,431.09 1224.28,425.07 1230.93,421.34 1235.85,420.55"/>
    </edge>
    <edge id=":A2_17" function="internal">
        <lane id=":A2_17_0" index="0" disallow="pedestrian" speed="3.82" length="5.11" width="3.50" shape="1217.75,439.38 1218.76,438.17 1219.67,437.83 1220.50,438.36 1221.23,439.76"/>
    </edge>
    <edge id=":A2_24" function="internal">
        <lane id=":A2_24_0" index="0" disallow="pedestrian" speed="7.77" length="4.09" width="3.50" shape="1203.75,430.26 1203.43,430.03 1199.82,429.20"/>
    </edge>
    <edge id=":A2_25" function="internal">
        <lane id=":A2_25_0" index="0" disallow="pedestrian" speed="12.57" length="4.03" width="3.50" shape="1235.85,420.55 1239.83,419.90"/>
    </edge>
    <edge id=":A2_c0" function="crossing" crossingEdges="A2right0 right0A2">
        <lane id=":A2_c0_0" index="0" allow="pedestrian" speed="2.78" length="21.00" width="4.00" shape="1237.56,411.21 1238.20,432.20" outlineShape="1239.56,411.15 1240.20,432.14 1238.39,432.44 1236.84,433.21 1236.25,433.80 1235.54,410.51 1237.10,411.00"/>
    </edge>
    <edge id=":A2_c1" function="crossing" crossingEdges="A2bottom2 bottom2A2">
        <lane id=":A2_c1_0" index="0" allow="pedestrian" speed="2.78" length="21.00" width="4.00" shape="1210.37,405.68 1231.36,405.07" outlineShape="1210.31,403.68 1231.30,403.07 1231.60,405.61 1232.11,407.05 1209.24,407.72 1209.41,407.54 1210.12,405.83"/>
    </edge>
    <edge id=":A2_c2" function="crossing" crossingEdges="A2A1 A1A2">
        <lane id=":A2_c2_0" index="0" allow="pedestrian" speed="2.78" length="21.00" width="4.00" shape="1201.67,431.11 1203.41,410.18" outlineShape="1199.68,430.95 1201.41,410.02 1204.19,410.05 1205.44,409.83 1203.58,432.26 1203.26,431.98 1201.67,431.30"/>
    </edge>
    <edge id=":A2_c3" function="crossing" crossingEdges="A2B2 B2A2">
        <lane id=":A2_c3_0" index="0" allow="pedestrian" speed="2.78" length="28.00" width="4.00" shape="1233.62,439.08 1205.78,436.09" outlineShape="1233.41,441.06 1205.57,438.08 1205.60,436.05 1205.23,434.36 1205.02,434.00 1234.27,437.13 1233.86,438.39"/>
    </edge>
    <edge id=":A2_w0" function="walkingarea">
        <lane id=":A2_w0_0" index="0" allow="pedestrian" speed="2.78" length="6.68" width="5.00" shape="1233.41,441.06 1238.38,441.60 1240.35,437.14 1240.20,432.14 1238.39,432.44 1236.84,433.21 1235.58,434.46 1234.58,436.19 1233.86,438.39"/>
    </edge>
    <edge id=":A2_w1" function="walkingarea">
        <lane id=":A2_w1_0" index="0" allow="pedestrian" speed="2.78" length="6.85" width="5.00" shape="1239.56,411.15 1239.41,406.15 1236.30,402.93 1231.30,403.07 1231.60,405.61 1232.32,407.67 1233.49,409.25 1235.08,410.36 1237.10,411.00"/>
    </edge>
    <edge id=":A2_w2" function="walkingarea">
        <lane id=":A2_w2_0" index="0" allow="pedestrian" speed="2.78" length="6.44" width="5.00" shape="1210.31,403.68 1205.31,403.83 1201.83,405.04 1201.41,410.02 1204.19,410.05 1206.45,409.65 1208.19,408.81 1209.41,407.54 1210.12,405.83"/>
    </edge>
    <edge id=":A2_w3" function="walkingarea">
        <lane id=":A2_w3_0" index="0" allow="pedestrian" speed="2.78" length="5.37" width="5.00" shape="1199.68,430.95 1199.26,435.93 1200.60,437.54 1205.57,438.08 1205.60,436.05 1205.23,434.36 1204.45,433.00 1203.26,431.98 1201.67,431.30"/>
    </edge>
    <edge id=":B0_0" function="internal">
        <lane id=":B0_0_0" index="0" disallow="pedestrian" speed="9.08" length="11.93" width="3.50" shape="451.30,787.06 448.06,787.81 445.47,789.98 443.53,793.56 443.24,794.67"/>
    </edge>
    <edge id=":B0_1" function="internal">
        <lane id=":B0_1_0" index="0" disallow="pedestrian" speed="16.67" length="38.79" width="3.50" shape="451.26,783.56 412.63,782.39"/>
        <lane id=":B0_1_1" index="1" disallow="pedestrian" speed="16.67" length="38.79" width="3.50" shape="451.21,780.06 412.29,778.91"/>
    </edge>
    <edge id=":B0_3" function="internal">
        <lane id=":B0_3_0" index="0" disallow="pedestrian" speed="12.17" length="29.11" width="3.50" shape="451.17,776.56 442.77,775.32 436.62,771.34 432.72,764.64 431.76,759.18"/>
    </edge>
    <edge id=":B0_4" function="internal">
        <lane id=":B0_4_0" index="0" disallow="pedestrian" speed="3.82" length="5.11" width="3.50" shape="451.17,776.56 449.85,775.70 449.40,774.83 449.82,773.95 451.12,773.06"/>
    </edge>
    <edge id=":B0_19" function="internal">
        <lane id=":B0_19_0" index="0" disallow="pedestrian" speed="9.08" length="4.01" width="3.50" shape="443.24,794.67 442.24,798.56"/>
    </edge>
    <edge id=":B0_20" function="internal">
        <lane id=":B0_20_0" index="0" disallow="pedestrian" speed="12.17" length="4.03" width="3.50" shape="431.76,759.18 431.06,755.21"/>
    </edge>
    <edge id=":B0_5" function="internal">
        <lane id=":B0_5_0" index="0" disallow="pedestrian" speed="8.06" length="9.89" width="3.50" shape="441.54,754.68 442.29,758.17 444.11,760.65 447.01,762.11"/>
    </edge>
    <edge id=":B0_6" function="internal">
        <lane id=":B0_6_0" index="0" disallow="pedestrian" speed="16.67" length="43.04" width="3.50" shape="438.05,754.86 439.09,767.03 440.14,775.93 440.33,785.08 438.79,797.98"/>
        <lane id=":B0_6_1" index="1" disallow="pedestrian" speed="16.67" length="43.04" width="3.50" shape="438.05,754.86 438.55,766.98 438.40,775.74 437.40,784.69 435.34,797.39"/>
    </edge>
    <edge id=":B0_8" function="internal">
        <lane id=":B0_8_0" index="0" disallow="pedestrian" speed="12.87" length="32.80" width="3.50" shape="434.55,755.03 433.57,764.62 429.53,771.79 422.43,776.56 416.22,778.00"/>
    </edge>
    <edge id=":B0_9" function="internal">
        <lane id=":B0_9_0" index="0" disallow="pedestrian" speed="3.82" length="5.11" width="3.50" shape="434.55,755.03 433.75,756.39 432.89,756.87 432.00,756.47 431.06,755.21"/>
    </edge>
    <edge id=":B0_21" function="internal">
        <lane id=":B0_21_0" index="0" disallow="pedestrian" speed="8.06" length="4.01" width="3.50" shape="447.01,762.11 450.99,762.56"/>
    </edge>
    <edge id=":B0_22" function="internal">
        <lane id=":B0_22_0" index="0" disallow="pedestrian" speed="12.87" length="4.03" width="3.50" shape="416.22,778.00 412.29,778.91"/>
    </edge>
    <edge id=":B0_10" function="internal">
        <lane id=":B0_10_0" index="0" disallow="pedestrian" speed="9.12" length="13.70" width="3.50" shape="410.91,764.98 416.82,763.89 420.98,761.95 423.02,759.61"/>
    </edge>
    <edge id=":B0_11" function="internal">
        <lane id=":B0_11_0" index="0" disallow="pedestrian" speed="16.67" length="39.70" width="3.50" shape="411.26,768.46 451.04,766.06"/>
        <lane id=":B0_11_1" index="1" disallow="pedestrian" speed="16.67" length="39.70" width="3.50" shape="411.60,771.95 451.08,769.56"/>
    </edge>
    <edge id=":B0_13" function="internal">
        <lane id=":B0_13_0" index="0" disallow="pedestrian" speed="11.42" length="31.95" width="3.50" shape="411.94,775.43 422.26,775.84 428.99,779.51 432.19,786.49 432.01,792.77"/>
    </edge>