<?xml version="1.0" encoding="UTF-8"?>

<!-- generated on 2026-04-03T19:27:19.349229+08:00 by Eclipse SUMO netconvert 1.25.0
<netconvertConfiguration xmlns:xsi="http://www.w3.org/2001/XMLSchema-instance" xsi:noNamespaceSchemaLocation="http://sumo.dlr.de/xsd/netconvertConfiguration.xsd">

    <input>
        <node-files value="topology/net.nod.xml"/>
        <edge-files value="topology/net.edg.xml"/>
        <connection-files value="topology/net.con.xml"/>
        <tllogic-files value="topology/net.tls.xml"/>
        <type-files value="net.typ.xml"/>
    </input>

    <output>
        <output-file value="network/sim.net.xml"/>
    </output>

    <processing>
        <lefthand value="false"/>
    </processing>

    <junctions>
        <no-turnarounds value="true"/>
        <junctions.corner-detail value="5"/>
        <junctions.limit-turn-speed value="5.5"/>
    </junctions>

    <pedestrian>
        <sidewalks.guess.max-speed value="8.67"/>
        <crossings.guess value="true"/>
        <walkingareas value="true"/>
    </pedestrian>

</netconvertConfiguration>
-->

<net version="1.20" junctionCornerDetail="5" walkingareas="true" limitTurnSpeed="5.50" xmlns:xsi="http://www.w3.org/2001/XMLSchema-instance" xsi:noNamespaceSchemaLocation="http://sumo.dlr.de/xsd/net_file.xsd">

    <location netOffset="-228.34,-223.92" convBoundary="0.00,0.00,1349.45,1353.54" origBoundary="228.34,223.92,1577.79,1577.46" projParameter="!"/>

    <type id="arterial_3" priority="13" numLanes="3" speed="16.67" width="3.50" sidewalkWidth="5.00"/>
    <type id="arterial_4" priority="14" numLanes="4" speed="16.67" width="3.50" sidewalkWidth="5.00"/>
    <type id="arterial_5" priority="15" numLanes="5" speed="16.67" width="3.50" sidewalkWidth="5.00"/>

    <edge id=":A0_0" function="internal">
        <lane id=":A0_0_0" index="0" disallow="pedestrian" speed="9.37" length="15.75" width="3.50" shape="306.20,248.41 302.53,249.15 299.76,251.93 297.90,256.75 297.49,259.64"/>
    </edge>
    <edge id=":A0_1" function="internal">
        <lane id=":A0_1_0" index="0" disallow="pedestrian" speed="16.67" length="47.37" width="3.50" shape="306.43,244.92 293.98,244.71 284.28,245.78 273.94,247.65 259.56,249.88"/>
        <lane id=":A0_1_1" index="1" disallow="pedestrian" speed="16.67" length="47.37" width="3.50" shape="306.43,244.92 293.92,244.17 284.10,244.04 273.61,244.72 259.12,246.41"/>
    </edge>
    <edge id=":A0_3" function="internal">
        <lane id=":A0_3_0" index="0" disallow="pedestrian" speed="13.37" length="34.32" width="3.50" shape="306.67,241.42 295.45,239.39 287.34,234.98 282.36,228.20 281.31,223.03"/>
    </edge>
    <edge id=":A0_4" function="internal">
        <lane id=":A0_4_0" index="0" disallow="pedestrian" speed="3.82" length="5.11" width="3.50" shape="306.67,241.42 305.41,240.46 305.04,239.56 305.53,238.72 306.90,237.93"/>
    </edge>
    <edge id=":A0_21" function="internal">
        <lane id=":A0_21_0" index="0" disallow="pedestrian" speed="9.37" length="4.01" width="3.50" shape="297.49,259.64 296.93,263.61"/>
    </edge>
    <edge id=":A0_22" function="internal">
        <lane id=":A0_22_0" index="0" disallow="pedestrian" speed="13.37" length="4.06" width="3.50" shape="281.31,223.03 280.49,219.05"/>
    </edge>
    <edge id=":A0_5" function="internal">
        <lane id=":A0_5_0" index="0" disallow="pedestrian" speed="9.86" length="16.35" width="3.50" shape="290.99,218.74 292.11,222.14 295.25,224.73 300.42,226.50 303.62,226.93"/>
    </edge>
    <edge id=":A0_6" function="internal">
        <lane id=":A0_6_0" index="0" disallow="pedestrian" speed="16.67" length="44.57" width="3.50" shape="287.49,218.84 288.88,231.08 291.24,240.20 293.21,249.78 293.44,263.38"/>
        <lane id=":A0_6_1" index="1" disallow="pedestrian" speed="16.67" length="44.57" width="3.50" shape="287.49,218.84 288.33,231.08 289.48,240.19 290.25,249.70 289.95,263.16"/>
        <lane id=":A0_6_2" index="2" disallow="pedestrian" speed="16.67" length="44.57" width="3.50" shape="287.49,218.84 287.78,231.07 287.73,240.13 287.30,249.57 286.45,262.93"/>
    </edge>
    <edge id=":A0_9" function="internal">
        <lane id=":A0_9_0" index="0" disallow="pedestrian" speed="13.46" length="34.83" width="3.50" shape="283.99,218.94 282.64,228.20 277.97,235.28 269.98,240.19 262.58,241.99"/>
    </edge>
    <edge id=":A0_10" function="internal">
        <lane id=":A0_10_0" index="0" disallow="pedestrian" speed="3.82" length="5.11" width="3.50" shape="283.99,218.94 283.16,220.28 282.30,220.75 281.41,220.33 280.49,219.05"/>
    </edge>
    <edge id=":A0_23" function="internal">
        <lane id=":A0_23_0" index="0" disallow="pedestrian" speed="9.86" length="4.01" width="3.50" shape="303.62,226.93 307.60,227.46"/>
    </edge>
    <edge id=":A0_24" function="internal">
        <lane id=":A0_24_0" index="0" disallow="pedestrian" speed="13.46" length="4.02" width="3.50" shape="262.58,241.99 258.67,242.94"/>
    </edge>
    <edge id=":A0_11" function="internal">
        <lane id=":A0_11_0" index="0" disallow="pedestrian" speed="9.29" length="13.70" width="3.50" shape="256.89,229.05 262.72,227.80 266.84,225.77 268.89,223.39"/>
    </edge>
    <edge id=":A0_12" function="internal">
        <lane id=":A0_12_0" index="0" disallow="pedestrian" speed="16.67" length="49.86" width="3.50" shape="257.34,232.52 272.11,230.70 282.30,229.92 292.51,230.05 307.36,230.95"/>
        <lane id=":A0_12_1" index="1" disallow="pedestrian" speed="16.67" length="49.86" width="3.50" shape="257.78,235.99 272.36,234.20 282.40,233.42 292.47,233.55 307.13,234.44"/>
    </edge>
    <edge id=":A0_14" function="internal">
        <lane id=":A0_14_0" index="0" disallow="pedestrian" speed="12.50" length="37.28" width="3.50" shape="258.23,239.47 270.15,239.44 278.07,243.13 282.24,250.80 282.72,258.68"/>
    </edge>
    <edge id=":A0_15" function="internal">
        <lane id=":A0_15_0" index="0" disallow="pedestrian" speed="3.82" length="5.11" width="3.50" shape="258.23,239.47 259.64,240.17 260.19,240.98 259.86,241.90 258.67,242.94"/>
    </edge>
    <edge id=":A0_25" function="internal">
        <lane id=":A0_25_0" index="0" disallow="pedestrian" speed="9.29" length="4.25" width="3.50" shape="268.89,223.39 269.27,222.96 270.00,219.36"/>
    </edge>
    <edge id=":A0_26" function="internal">
        <lane id=":A0_26_0" index="0" disallow="pedestrian" speed="12.50" length="4.03" width="3.50" shape="282.72,258.68 282.96,262.70"/>
    </edge>
    <edge id=":A0_16" function="internal">
        <lane id=":A0_16_0" index="0" disallow="pedestrian" speed="7.68" length="10.73" width="3.50" shape="268.99,261.79 268.67,257.64 267.06,254.85 264.17,253.42 264.05,253.42"/>
    </edge>
    <edge id=":A0_17" function="internal">
        <lane id=":A0_17_0" index="0" disallow="pedestrian" speed="16.67" length="42.97" width="3.50" shape="272.48,262.02 273.32,249.34 273.75,240.65 273.80,231.96 273.50,219.26"/>
        <lane id=":A0_17_1" index="1" disallow="pedestrian" speed="16.67" length="42.97" width="3.50" shape="275.98,262.25 276.82,249.47 277.25,240.71 277.30,231.95 277.00,219.15"/>
    </edge>
    <edge id=":A0_19" function="internal">
        <lane id=":A0_19_0" index="0" disallow="pedestrian" speed="13.45" length="37.94" width="3.50" shape="279.47,262.47 281.82,251.09 287.18,243.21 295.54,238.82 302.87,238.25"/>
    </edge>
    <edge id=":A0_20" function="internal">
        <lane id=":A0_20_0" index="0" disallow="pedestrian" speed="3.82" length="5.11" width="3.50" shape="279.47,262.47 280.43,261.22 281.33,260.84 282.17,261.33 282.96,262.70"/>
    </edge>
    <edge id=":A0_27" function="internal">
        <lane id=":A0_27_0" index="0" disallow="pedestrian" speed="7.68" length="4.04" width="3.50" shape="264.05,253.42 260.01,253.35"/>
    </edge>
    <edge id=":A0_28" function="internal">
        <lane id=":A0_28_0" index="0" disallow="pedestrian" speed="13.45" length="4.04" width="3.50" shape="302.87,238.25 306.90,237.93"/>
    </edge>
    <edge id=":A0_c0" function="crossing" crossingEdges="A0A1 A1A0">
        <lane id=":A0_c0_0" index="0" allow="pedestrian" speed="2.78" length="24.50" width="4.00" shape="305.72,225.58 304.09,250.02" outlineShape="307.71,225.71 306.08,250.16 306.08,250.25 306.08,250.16 304.07,250.41 302.37,251.47 301.95,252.04 303.73,225.30"/>
    </edge>
    <edge id=":A0_c1" function="crossing" crossingEdges="A0bottom0 bottom0A0">
        <lane id=":A0_c1_0" index="0" allow="pedestrian" speed="2.78" length="24.50" width="4.00" shape="268.31,221.41 292.80,220.68" outlineShape="268.25,219.41 292.74,218.68 293.21,220.56 294.48,222.15 295.22,222.61 266.69,223.46 267.05,223.13 267.98,221.41"/>
    </edge>
    <edge id=":A0_c2" function="crossing" crossingEdges="A0left0 left0A0">
        <lane id=":A0_c2_0" index="0" allow="pedestrian" speed="2.78" length="28.00" width="4.00" shape="262.21,254.83 258.65,227.06" outlineShape="260.23,255.09 256.67,227.32 256.66,227.22 256.67,227.32 260.26,226.68 260.61,226.57 264.30,255.38 262.51,255.00"/>
    </edge>
    <edge id=":A0_c3" function="crossing" crossingEdges="A0B0 B0A0">
        <lane id=":A0_c3_0" index="0" allow="pedestrian" speed="2.78" length="31.50" width="4.00" shape="298.81,261.73 267.37,259.68" outlineShape="298.68,263.72 267.24,261.68 267.19,259.40 266.70,257.63 299.11,259.74"/>
    </edge>
    <edge id=":A0_w0" function="walkingarea">
        <lane id=":A0_w0_0" index="0" allow="pedestrian" speed="2.78" length="9.52" width="5.00" shape="298.68,263.72 303.67,264.05 305.75,255.14 306.08,250.16 304.07,250.41 302.37,251.47 300.98,253.33 299.91,255.99 299.14,259.46"/>
    </edge>
    <edge id=":A0_w1" function="walkingarea">
        <lane id=":A0_w1_0" index="0" allow="pedestrian" speed="2.78" length="10.26" width="5.00" shape="307.71,225.71 308.05,220.72 297.74,218.54 292.74,218.68 293.21,220.56 294.48,222.15 296.57,223.46 299.47,224.49 303.19,225.24"/>
    </edge>
    <edge id=":A0_w2" function="walkingarea">
        <lane id=":A0_w2_0" index="0" allow="pedestrian" speed="2.78" length="8.54" width="5.00" shape="268.25,219.41 263.25,219.56 256.03,222.36 256.67,227.32 260.26,226.68 263.19,225.77 265.45,224.59 267.05,223.13 267.98,221.41"/>
    </edge>
    <edge id=":A0_w3" function="walkingarea">
        <lane id=":A0_w3_0" index="0" allow="pedestrian" speed="2.78" length="5.59" width="5.00" shape="260.23,255.09 260.86,260.05 262.26,261.35 267.24,261.68 267.19,259.40 266.68,257.59 265.74,256.25 264.35,255.39 262.51,255.00"/>
    </edge>
    <edge id=":A1_0" function="internal">
        <lane id=":A1_0_0" index="0" disallow="pedestrian" speed="7.72" length="10.01" width="3.50" shape="541.67,265.26 537.76,265.36 534.95,266.71 533.31,269.19"/>
    </edge>
    <edge id=":A1_1" function="internal">
        <lane id=":A1_1_0" index="0" disallow="pedestrian" speed="16.67" length="42.73" width="3.50" shape="542.09,261.79 499.55,257.79"/>
    </edge>
    <edge id=":A1_2" function="internal">
        <lane id=":A1_2_0" index="0" disallow="pedestrian" speed="13.17" length="33.98" width="3.50" shape="542.50,258.31 532.22,255.67 525.03,250.59 520.95,243.05 520.36,237.09"/>
    </edge>
    <edge id=":A1_3" function="internal">
        <lane id=":A1_3_0" index="0" disallow="pedestrian" speed="3.82" length="5.11" width="3.50" shape="542.50,258.31 541.30,257.29 540.97,256.36 541.51,255.55 542.92,254.83"/>
    </edge>
    <edge id=":A1_19" function="internal">
        <lane id=":A1_19_0" index="0" disallow="pedestrian" speed="7.72" length="4.06" width="3.50" shape="533.31,269.19 533.23,269.32 532.61,273.18"/>
    </edge>
    <edge id=":A1_20" function="internal">
        <lane id=":A1_20_0" index="0" disallow="pedestrian" speed="13.17" length="4.04" width="3.50" shape="520.36,237.09 519.96,233.07"/>
    </edge>
    <edge id=":A1_4" function="internal">
        <lane id=":A1_4_0" index="0" disallow="pedestrian" speed="10.10" length="17.89" width="3.50" shape="530.45,233.60 531.04,239.22 533.45,243.48 537.69,246.37 539.84,246.90"/>
    </edge>
    <edge id=":A1_5" function="internal">
        <lane id=":A1_5_0" index="0" disallow="pedestrian" speed="16.67" length="39.74" width="3.50" shape="526.95,233.42 526.91,245.21 527.77,253.26 528.76,261.33 529.11,273.13"/>
        <lane id=":A1_5_1" index="1" disallow="pedestrian" speed="16.67" length="39.74" width="3.50" shape="526.95,233.42 525.61,273.07"/>
    </edge>
    <edge id=":A1_7" function="internal">
        <lane id=":A1_7_0" index="0" disallow="pedestrian" speed="12.46" length="32.23" width="3.50" shape="523.46,233.24 521.55,243.02 516.97,249.79 509.71,253.55 503.81,254.00"/>
    </edge>
    <edge id=":A1_8" function="internal">
        <lane id=":A1_8_0" index="0" disallow="pedestrian" speed="3.82" length="5.11" width="3.50" shape="523.46,233.24 522.52,234.51 521.62,234.90 520.77,234.42 519.96,233.07"/>
    </edge>
    <edge id=":A1_21" function="internal">
        <lane id=":A1_21_0" index="0" disallow="pedestrian" speed="10.10" length="4.03" width="3.50" shape="539.84,246.90 543.75,247.88"/>
    </edge>
    <edge id=":A1_22" function="internal">
        <lane id=":A1_22_0" index="0" disallow="pedestrian" speed="12.46" length="4.04" width="3.50" shape="503.81,254.00 499.78,254.30"/>
    </edge>
    <edge id=":A1_9" function="internal">
        <lane id=":A1_9_0" index="0" disallow="pedestrian" speed="7.78" length="9.33" width="3.50" shape="500.71,240.33 504.39,240.05 507.07,238.66 508.54,236.50"/>
    </edge>
    <edge id=":A1_10" function="internal">
        <lane id=":A1_10_0" index="0" disallow="pedestrian" speed="16.67" length="43.48" width="3.50" shape="500.48,243.82 513.54,245.28 522.60,247.25 531.31,249.39 543.33,251.36"/>
        <lane id=":A1_10_1" index="1" disallow="pedestrian" speed="16.67" length="43.48" width="3.50" shape="500.25,247.32 513.24,248.77 522.24,250.73 530.91,252.86 542.92,254.83"/>
    </edge>
    <edge id=":A1_12" function="internal">
        <lane id=":A1_12_0" index="0" disallow="pedestrian" speed="12.62" length="31.28" width="3.50" shape="500.01,250.81 509.80,252.76 516.75,257.11 520.85,263.86 521.56,269.01"/>
    </edge>
    <edge id=":A1_13" function="internal">
        <lane id=":A1_13_0" index="0" disallow="pedestrian" speed="3.82" length="5.11" width="3.50" shape="500.01,250.81 501.26,251.77 501.64,252.67 501.15,253.52 499.78,254.30"/>
    </edge>
    <edge id=":A1_23" function="internal">
        <lane id=":A1_23_0" index="0" disallow="pedestrian" speed="7.78" length="4.10" width="3.50" shape="508.54,236.50 508.77,236.16 509.47,232.54"/>
    </edge>
    <edge id=":A1_24" function="internal">
        <lane id=":A1_24_0" index="0" disallow="pedestrian" speed="12.62" length="4.05" width="3.50" shape="521.56,269.01 522.11,273.02"/>
    </edge>
    <edge id=":A1_14" function="internal">
        <lane id=":A1_14_0" index="0" disallow="pedestrian" speed="8.72" length="12.28" width="3.50" shape="508.11,272.80 507.63,267.99 506.00,264.46 503.23,262.23"/>
    </edge>
    <edge id=":A1_15" function="internal">
        <lane id=":A1_15_0" index="0" disallow="pedestrian" speed="16.67" length="40.10" width="3.50" shape="511.61,272.85 512.97,232.72"/>
        <lane id=":A1_15_1" index="1" disallow="pedestrian" speed="16.67" length="40.10" width="3.50" shape="515.11,272.91 516.46,232.89"/>
    </edge>
    <edge id=":A1_17" function="internal">
        <lane id=":A1_17_0" index="0" disallow="pedestrian" speed="12.11" length="32.40" width="3.50" shape="518.61,272.96 520.17,262.74 524.59,256.83 532.10,254.46 538.91,254.69"/>
    </edge>
    <edge id=":A1_18" function="internal">
        <lane id=":A1_18_0" index="0" disallow="pedestrian" speed="3.82" length="5.11" width="3.50" shape="518.61,272.96 519.51,271.66 520.39,271.24 521.26,271.69 522.11,273.02"/>
    </edge>
    <edge id=":A1_25" function="internal">
        <lane id=":A1_25_0" index="0" disallow="pedestrian" speed="8.72" length="4.03" width="3.50" shape="503.23,262.23 499.31,261.29"/>
    </edge>
    <edge id=":A1_26" function="internal">
        <lane id=":A1_26_0" index="0" disallow="pedestrian" speed="12.11" length="4.01" width="3.50" shape="538.91,254.69 542.92,254.83"/>
    </edge>
    <edge id=":A1_c0" function="crossing" crossingEdges="A1A2 A2A1">
        <lane id=":A1_c0_0" index="0" allow="pedestrian" speed="2.78" length="21.00" width="4.00" shape="541.97,245.91 539.48,266.76" outlineShape="543.96,246.15 541.47,267.00 541.45,267.10 541.47,267.00 539.33,266.94 537.57,267.32 537.39,267.42 540.03,245.31 540.21,245.39"/>
    </edge>
    <edge id=":A1_c1" function="crossing" crossingEdges="A1bottom1 bottom1A1">
        <lane id=":A1_c1_0" index="0" allow="pedestrian" speed="2.78" length="24.50" width="4.00" shape="507.63,234.45 532.09,235.68" outlineShape="507.73,232.45 532.19,233.68 532.29,233.69 532.19,233.68 532.37,237.08 532.56,237.71 506.54,236.40 506.81,236.05 507.44,234.45"/>
    </edge>
    <edge id=":A1_c2" function="crossing" crossingEdges="A1A0 A0A1">
        <lane id=":A1_c2_0" index="0" allow="pedestrian" speed="2.78" length="24.50" width="4.00" shape="501.19,263.17 502.82,238.72" outlineShape="499.20,263.03 500.83,238.59 500.83,238.49 502.84,238.54 504.51,238.10 504.88,237.87 503.12,264.27 501.43,263.44"/>
    </edge>
    <edge id=":A1_c3" function="crossing" crossingEdges="A1B1 B1A1">
        <lane id=":A1_c3_0" index="0" allow="pedestrian" speed="2.78" length="28.00" width="4.00" shape="534.39,271.21 506.40,270.77" outlineShape="534.36,273.21 506.37,272.77 506.27,272.77 506.37,272.77 506.21,269.93 505.92,268.76 535.33,269.22 535.20,269.39 534.59,271.08"/>
    </edge>
    <edge id=":A1_w0" function="walkingarea">
        <lane id=":A1_w0_0" index="0" allow="pedestrian" speed="2.78" length="5.48" width="5.00" shape="534.36,273.21 539.36,273.29 540.87,271.96 541.47,267.00 539.33,266.94 537.57,267.32 536.19,268.13 535.20,269.39 534.59,271.08"/>
    </edge>
    <edge id=":A1_w1" function="walkingarea">
        <lane id=":A1_w1_0" index="0" allow="pedestrian" speed="2.78" length="10.50" width="5.00" shape="543.96,246.15 544.55,241.18 537.19,233.94 532.19,233.68 532.37,237.08 533.26,239.95 534.86,242.30 537.18,244.11 540.21,245.39"/>
    </edge>
    <edge id=":A1_w2" function="walkingarea">
        <lane id=":A1_w2_0" index="0" allow="pedestrian" speed="2.78" length="5.36" width="5.00" shape="507.73,232.45 502.73,232.20 501.16,233.60 500.83,238.59 502.84,238.54 504.51,238.10 505.84,237.27 506.81,236.05 507.44,234.45"/>
    </edge>
    <edge id=":A1_w3" function="walkingarea">
        <lane id=":A1_w3_0" index="0" allow="pedestrian" speed="2.78" length="7.21" width="5.00" shape="499.20,263.03 498.86,268.02 501.37,272.69 506.37,272.77 506.21,269.93 505.63,267.58 504.65,265.71 503.24,264.33 501.43,263.44"/>
    </edge>
    <edge id=":A2_0" function="internal">
        <lane id=":A2_0_0" index="0" disallow="pedestrian" speed="12.76" length="21.74" width="3.50" shape="851.70,298.07 844.02,300.03 838.13,303.02 834.05,307.04 833.44,308.39"/>
    </edge>
    <edge id=":A2_1" function="internal">
        <lane id=":A2_1_0" index="0" disallow="pedestrian" speed="16.67" length="51.16" width="3.50" shape="851.11,294.61 835.49,296.38 823.67,296.03 812.75,294.46 799.82,292.55"/>
        <lane id=":A2_1_1" index="1" disallow="pedestrian" speed="16.67" length="51.16" width="3.50" shape="850.53,291.16 835.07,292.93 823.59,292.57 813.00,290.99 800.23,289.08"/>
    </edge>
    <edge id=":A2_3" function="internal">
        <lane id=":A2_3_0" index="0" disallow="pedestrian" speed="12.91" length="36.57" width="3.50" shape="849.95,287.71 838.02,288.20 829.18,285.13 823.42,278.50 821.76,272.23"/>
    </edge>
    <edge id=":A2_4" function="internal">
        <lane id=":A2_4_0" index="0" disallow="pedestrian" speed="3.82" length="5.11" width="3.50" shape="849.95,287.71 848.51,287.07 847.93,286.28 848.22,285.34 849.37,284.26"/>
    </edge>
    <edge id=":A2_21" function="internal">
        <lane id=":A2_21_0" index="0" disallow="pedestrian" speed="12.76" length="4.07" width="3.50" shape="833.44,308.39 831.77,312.10"/>
    </edge>
    <edge id=":A2_22" function="internal">
        <lane id=":A2_22_0" index="0" disallow="pedestrian" speed="12.91" length="4.05" width="3.50" shape="821.76,272.23 820.73,268.31"/>
    </edge>
    <edge id=":A2_5" function="internal">
        <lane id=":A2_5_0" index="0" disallow="pedestrian" speed="7.74" length="9.76" width="3.50" shape="838.15,266.65 839.06,270.37 840.94,272.82 843.56,273.91"/>
    </edge>
    <edge id=":A2_6" function="internal">
        <lane id=":A2_6_0" index="0" disallow="pedestrian" speed="16.67" length="44.55" width="3.50" shape="834.67,266.98 835.34,280.24 834.34,289.33 831.93,298.31 828.37,311.25"/>
        <lane id=":A2_6_1" index="1" disallow="pedestrian" speed="16.67" length="44.55" width="3.50" shape="831.19,267.31 831.82,280.22 830.82,289.07 828.45,297.81 824.98,310.41"/>
    </edge>
    <edge id=":A2_8" function="internal">
        <lane id=":A2_8_0" index="0" disallow="pedestrian" speed="13.03" length="41.64" width="3.50" shape="827.70,267.65 827.08,280.61 822.23,288.78 813.15,292.61 803.85,292.57"/>
        <lane id=":A2_8_1" index="1" disallow="pedestrian" speed="12.07" length="34.99" width="3.50" shape="824.22,267.98 823.66,279.02 819.46,285.94 811.65,289.15 804.26,289.10"/>
    </edge>
    <edge id=":A2_10" function="internal">
        <lane id=":A2_10_0" index="0" disallow="pedestrian" speed="3.82" length="5.11" width="3.50" shape="824.22,267.98 823.47,269.37 822.64,269.89 821.73,269.53 820.73,268.31"/>
    </edge>
    <edge id=":A2_23" function="internal">
        <lane id=":A2_23_0" index="0" disallow="pedestrian" speed="7.74" length="4.08" width="3.50" shape="843.56,273.91 843.79,274.00 847.62,273.91"/>
    </edge>
    <edge id=":A2_24" function="internal">
        <lane id=":A2_24_0" index="0" disallow="pedestrian" speed="13.03" length="4.03" width="3.50" shape="803.85,292.57 799.82,292.55"/>
        <lane id=":A2_24_1" index="0" disallow="pedestrian" speed="12.07" length="4.03" width="3.50" shape="804.26,289.10 800.23,289.08"/>
    </edge>
    <edge id=":A2_11" function="internal">
        <lane id=":A2_11_0" index="0" disallow="pedestrian" speed="7.79" length="11.44" width="3.50" shape="801.48,278.65 805.71,278.51 808.58,276.90 810.11,273.83 810.12,273.34"/>
    </edge>
    <edge id=":A2_12" function="internal">
        <lane id=":A2_12_0" index="0" disallow="pedestrian" speed="16.67" length="47.82" width="3.50" shape="801.06,282.13 813.52,282.94 823.32,282.11 833.77,280.10 848.20,277.36"/>
        <lane id=":A2_12_1" index="1" disallow="pedestrian" speed="16.67" length="47.82" width="3.50" shape="801.06,282.13 813.59,283.48 823.54,283.85 834.19,283.02 848.78,280.81"/>
    </edge>
    <edge id=":A2_14" function="internal">
        <lane id=":A2_14_0" index="0" disallow="pedestrian" speed="12.33" length="34.30" width="3.50" shape="800.65,285.60 811.92,287.82 819.29,291.94 822.57,298.88 821.95,305.54"/>
    </edge>
    <edge id=":A2_15" function="internal">
        <lane id=":A2_15_0" index="0" disallow="pedestrian" speed="3.82" length="5.11" width="3.50" shape="800.65,285.60 801.85,286.63 802.18,287.55 801.64,288.36 800.23,289.08"/>
    </edge>
    <edge id=":A2_25" function="internal">
        <lane id=":A2_25_0" index="0" disallow="pedestrian" speed="7.79" length="4.04" width="3.50" shape="810.12,273.34 810.28,269.31"/>
    </edge>
    <edge id=":A2_26" function="internal">
        <lane id=":A2_26_0" index="0" disallow="pedestrian" speed="12.33" length="4.05" width="3.50" shape="821.95,305.54 821.58,309.57"/>
    </edge>
    <edge id=":A2_16" function="internal">
        <lane id=":A2_16_0" index="0" disallow="pedestrian" speed="8.04" length="11.57" width="3.50" shape="807.99,306.19 808.28,302.23 806.95,299.21 803.99,297.15 803.32,296.98"/>
    </edge>
    <edge id=":A2_17" function="internal">
        <lane id=":A2_17_0" index="0" disallow="pedestrian" speed="16.67" length="39.07" width="3.50" shape="811.39,307.04 813.95,295.95 814.98,288.18 814.80,280.33 813.76,268.97"/>
        <lane id=":A2_17_1" index="1" disallow="pedestrian" speed="16.67" length="39.07" width="3.50" shape="814.79,307.88 817.43,296.45 818.49,288.45 818.32,280.35 817.25,268.64"/>
    </edge>
    <edge id=":A2_19" function="internal">
        <lane id=":A2_19_0" index="0" disallow="pedestrian" speed="16.20" length="38.07" width="3.50" shape="818.18,308.72 822.00,299.68 828.47,292.59 837.59,287.45 845.49,285.31"/>
    </edge>
    <edge id=":A2_20" function="internal">
        <lane id=":A2_20_0" index="0" disallow="pedestrian" speed="3.82" length="5.11" width="3.50" shape="818.18,308.72 819.35,307.66 820.30,307.45 821.05,308.08 821.58,309.57"/>
    </edge>
    <edge id=":A2_27" function="internal">
        <lane id=":A2_27_0" index="0" disallow="pedestrian" speed="8.04" length="4.03" width="3.50" shape="803.32,296.98 799.40,296.03"/>
    </edge>
    <edge id=":A2_28" function="internal">
        <lane id=":A2_28_0" index="0" disallow="pedestrian" speed="16.20" length="4.02" width="3.50" shape="845.49,285.31 849.37,284.26"/>
    </edge>
    <edge id=":A2_c0" function="crossing" crossingEdges="A2A3 A3A2">
        <lane id=":A2_c0_0" index="0" allow="pedestrian" speed="2.78" length="28.00" width="4.00" shape="845.35,272.51 850.02,300.12" outlineShape="847.33,272.18 851.99,299.79 848.08,300.66 843.23,271.92 843.49,272.06 845.24,272.34"/>
    </edge>
    <edge id=":A2_c1" function="crossing" crossingEdges="A2bottom2 bottom2A2">
        <lane id=":A2_c1_0" index="0" allow="pedestrian" speed="2.78" length="31.50" width="4.00" shape="808.73,271.46 840.09,268.47" outlineShape="808.54,269.47 839.90,266.48 840.28,268.54 841.01,270.16 841.21,270.38 808.24,273.52 808.57,272.00"/>
    </edge>
    <edge id=":A2_c2" function="crossing" crossingEdges="A2A1 A1A2">
        <lane id=":A2_c2_0" index="0" allow="pedestrian" speed="2.78" length="21.00" width="4.00" shape="801.18,298.00 803.67,277.15" outlineShape="799.20,297.76 801.69,276.91 801.70,276.81 801.69,276.91 804.00,276.96 805.76,276.51 803.10,298.79 801.85,298.28"/>
    </edge>
    <edge id=":A2_c3" function="crossing" crossingEdges="A2B2 B2A2">
        <lane id=":A2_c3_0" index="0" allow="pedestrian" speed="2.78" length="28.00" width="4.00" shape="833.95,310.58 806.78,303.83" outlineShape="833.57,312.54 806.20,305.75 806.58,303.62 806.27,301.79 806.17,301.62 835.09,308.80 834.67,309.38"/>
    </edge>
    <edge id=":A2_w0" function="walkingarea">
        <lane id=":A2_w0_0" index="0" allow="pedestrian" speed="2.78" length="14.13" width="5.00" shape="833.47,312.52 838.32,313.72 852.82,304.72 851.99,299.79 847.02,300.90 842.81,302.41 839.34,304.33 836.63,306.65 834.67,309.38"/>
    </edge>
    <edge id=":A2_w1" function="walkingarea">
        <lane id=":A2_w1_0" index="0" allow="pedestrian" speed="2.78" length="5.44" width="5.00" shape="847.33,272.18 846.49,267.25 844.87,266.01 839.90,266.48 840.28,268.54 841.01,270.16 842.08,271.33 843.49,272.06 845.24,272.34"/>
    </edge>
    <edge id=":A2_w2" function="walkingarea">
        <lane id=":A2_w2_0" index="0" allow="pedestrian" speed="2.78" length="5.90" width="5.00" shape="808.54,269.47 803.56,269.95 802.28,271.95 801.69,276.91 804.00,276.96 805.85,276.49 807.22,275.51 808.13,274.01 808.57,272.00"/>
    </edge>
    <edge id=":A2_w3" function="walkingarea">
        <lane id=":A2_w3_0" index="0" allow="pedestrian" speed="2.78" length="6.30" width="5.00" shape="799.20,297.76 798.60,302.73 801.44,304.57 806.29,305.77 806.58,303.62 806.27,301.79 805.38,300.29 803.91,299.12 801.85,298.28"/>
    </edge>
    <edge id=":A3_0" function="internal">
        <lane id=":A3_0_0" index="0" disallow="pedestrian" speed="8.22" length="12.05" width="3.50" shape="1120.76,258.20 1116.85,258.28 1113.95,259.98 1112.06,263.29 1111.89,264.25"/>
    </edge>
    <edge id=":A3_1" function="internal">
        <lane id=":A3_1_0" index="0" disallow="pedestrian" speed="16.67" length="38.32" width="3.50" shape="1121.33,254.75 1110.28,253.12 1102.61,252.72 1094.94,253.48 1083.90,255.31"/>
        <lane id=":A3_1_1" index="1" disallow="pedestrian" speed="16.67" length="38.32" width="3.50" shape="1121.89,251.29 1110.51,249.61 1102.60,249.20 1094.69,249.98 1083.32,251.86"/>
    </edge>
    <edge id=":A3_3" function="internal">
        <lane id=":A3_3_0" index="0" disallow="pedestrian" speed="14.49" length="32.61" width="3.50" shape="1122.46,247.84 1113.51,245.07 1106.61,240.03 1101.77,232.73 1100.11,227.04"/>
    </edge>
    <edge id=":A3_4" function="internal">
        <lane id=":A3_4_0" index="0" disallow="pedestrian" speed="3.82" length="5.11" width="3.50" shape="1122.46,247.84 1121.31,246.76 1121.02,245.83 1121.59,245.04 1123.03,244.39"/>
    </edge>
    <edge id=":A3_20" function="internal">
        <lane id=":A3_20_0" index="0" disallow="pedestrian" speed="8.22" length="4.03" width="3.50" shape="1111.89,264.25 1111.19,268.21"/>
    </edge>
    <edge id=":A3_21" function="internal">
        <lane id=":A3_21_0" index="0" disallow="pedestrian" speed="14.49" length="4.03" width="3.50" shape="1100.11,227.04 1098.98,223.17"/>
    </edge>
    <edge id=":A3_5" function="internal">
        <lane id=":A3_5_0" index="0" disallow="pedestrian" speed="10.57" length="15.04" width="3.50" shape="1112.79,220.89 1114.25,226.02 1116.72,229.92 1120.22,232.59 1120.88,232.80"/>
    </edge>
    <edge id=":A3_6" function="internal">
        <lane id=":A3_6_0" index="0" disallow="pedestrian" speed="16.67" length="46.40" width="3.50" shape="1109.34,221.46 1110.86,235.61 1110.42,245.85 1109.02,255.53 1107.70,267.99"/>
        <lane id=":A3_6_1" index="1" disallow="pedestrian" speed="16.67" length="46.40" width="3.50" shape="1105.88,222.03 1107.37,235.89 1106.92,245.88 1105.53,255.37 1104.21,267.77"/>
    </edge>
    <edge id=":A3_8" function="internal">