<?xml version="1.0" encoding="UTF-8"?>

<!-- generated on 2026-04-14T09:15:03.416202+08:00 by Eclipse SUMO netconvert 1.25.0
<netconvertConfiguration xmlns:xsi="http://www.w3.org/2001/XMLSchema-instance" xsi:noNamespaceSchemaLocation="http://sumo.dlr.de/xsd/netconvertConfiguration.xsd">

    <input>
        <node-files value="topology/net.nod.xml"/>
        <edge-files value="topology/net.edg.xml"/>
        <connection-files value="topology/net.con.xml"/>
        <tllogic-files value="topology/net.tls.xml"/>
        <type-files value="net.typ.xml"/>
    </input>

    <output>
        <output-file value="network/sim.net.xml"/>
    </output>

    <processing>
        <lefthand value="false"/>
    </processing>

    <junctions>
        <no-turnarounds value="true"/>
        <junctions.corner-detail value="5"/>
        <junctions.limit-turn-speed value="5.5"/>
    </junctions>

    <pedestrian>
        <sidewalks.guess.max-speed value="8.67"/>
        <crossings.guess value="true"/>
        <walkingareas value="true"/>
    </pedestrian>

</netconvertConfiguration>
-->

<net version="1.20" junctionCornerDetail="5" walkingareas="true" limitTurnSpeed="5.50" xmlns:xsi="http://www.w3.org/2001/XMLSchema-instance" xsi:noNamespaceSchemaLocation="http://sumo.dlr.de/xsd/net_file.xsd">

    <location netOffset="0.00,-3.32" convBoundary="0.00,0.00,2950.47,2475.62" origBoundary="0.00,3.32,2950.47,2478.94" projParameter="!"/>

    <type id="arterial_3" priority="12" numLanes="3" speed="13.88" width="3.50" sidewalkWidth="5.00"/>
    <type id="arterial_4" priority="13" numLanes="4" speed="13.88" width="3.50" sidewalkWidth="5.00"/>
    <type id="arterial_5" priority="14" numLanes="5" speed="16.67" width="3.50" sidewalkWidth="5.00"/>
    <type id="arterial_6" priority="15" numLanes="6" speed="16.67" width="3.50" sidewalkWidth="5.00"/>

    <edge id=":A0_0" function="internal">
        <lane id=":A0_0_0" index="0" disallow="pedestrian" speed="10.18" length="18.87" width="3.50" shape="277.54,310.31 276.46,303.11 274.05,297.99 270.29,294.97 269.20,294.77"/>
    </edge>
    <edge id=":A0_1" function="internal">
        <lane id=":A0_1_0" index="0" disallow="pedestrian" speed="15.28" length="56.52" width="3.50" shape="281.04,310.14 281.48,253.53"/>
        <lane id=":A0_1_1" index="1" disallow="pedestrian" speed="15.28" length="56.52" width="3.50" shape="284.53,309.96 284.98,253.54"/>
    </edge>
    <edge id=":A0_3" function="internal">
        <lane id=":A0_3_0" index="0" disallow="pedestrian" speed="14.61" length="47.09" width="3.50" shape="288.03,309.79 289.20,295.04 294.37,284.45 303.55,278.04 312.74,276.48"/>
        <lane id=":A0_3_1" index="1" disallow="pedestrian" speed="13.78" length="41.29" width="3.50" shape="291.53,309.62 292.55,296.46 297.09,287.02 305.17,281.30 312.77,279.99"/>
    </edge>
    <edge id=":A0_5" function="internal">
        <lane id=":A0_5_0" index="0" disallow="pedestrian" speed="3.82" length="5.11" width="3.50" shape="291.53,309.62 292.33,308.27 293.19,307.79 294.08,308.18 295.02,309.45"/>
    </edge>
    <edge id=":A0_22" function="internal">
        <lane id=":A0_22_0" index="0" disallow="pedestrian" speed="10.18" length="4.08" width="3.50" shape="269.20,294.77 265.19,294.03"/>
    </edge>
    <edge id=":A0_23" function="internal">
        <lane id=":A0_23_0" index="0" disallow="pedestrian" speed="14.61" length="4.05" width="3.50" shape="312.74,276.48 316.73,275.81"/>
        <lane id=":A0_23_1" index="0" disallow="pedestrian" speed="13.78" length="4.05" width="3.50" shape="312.77,279.99 316.76,279.31"/>
    </edge>
    <edge id=":A0_6" function="internal">
        <lane id=":A0_6_0" index="0" disallow="pedestrian" speed="9.11" length="15.13" width="3.50" shape="316.94,296.81 311.71,297.61 308.07,299.90 306.00,303.67 305.88,304.91"/>
    </edge>
    <edge id=":A0_7" function="internal">
        <lane id=":A0_7_0" index="0" disallow="pedestrian" speed="15.28" length="51.87" width="3.50" shape="316.90,293.31 265.12,290.53"/>
        <lane id=":A0_7_1" index="1" disallow="pedestrian" speed="15.28" length="51.87" width="3.50" shape="316.87,289.81 265.06,287.03"/>
    </edge>
    <edge id=":A0_9" function="internal">
        <lane id=":A0_9_0" index="0" disallow="pedestrian" speed="14.91" length="48.23" width="3.50" shape="316.83,286.31 302.85,284.38 292.88,278.27 286.93,267.99 285.52,257.54"/>
        <lane id=":A0_9_1" index="1" disallow="pedestrian" speed="14.09" length="42.53" width="3.50" shape="316.80,282.81 304.37,281.08 295.51,275.63 290.21,266.46 289.02,257.56"/>
    </edge>
    <edge id=":A0_11" function="internal">
        <lane id=":A0_11_0" index="0" disallow="pedestrian" speed="3.82" length="5.11" width="3.50" shape="316.80,282.81 315.48,281.94 315.03,281.07 315.46,280.19 316.76,279.31"/>
    </edge>
    <edge id=":A0_24" function="internal">
        <lane id=":A0_24_0" index="0" disallow="pedestrian" speed="9.11" length="4.04" width="3.50" shape="305.88,304.91 305.51,308.93"/>
    </edge>
    <edge id=":A0_25" function="internal">
        <lane id=":A0_25_0" index="0" disallow="pedestrian" speed="14.91" length="4.04" width="3.50" shape="285.52,257.54 284.98,253.54"/>
        <lane id=":A0_25_1" index="0" disallow="pedestrian" speed="14.09" length="4.04" width="3.50" shape="289.02,257.56 288.48,253.55"/>
    </edge>
    <edge id=":A0_12" function="internal">
        <lane id=":A0_12_0" index="0" disallow="pedestrian" speed="9.59" length="16.92" width="3.50" shape="302.48,253.61 303.35,258.78 306.00,262.45 310.42,264.63 312.62,264.87"/>
    </edge>
    <edge id=":A0_13" function="internal">
        <lane id=":A0_13_0" index="0" disallow="pedestrian" speed="13.88" length="55.69" width="3.50" shape="298.98,253.59 302.01,309.10"/>
        <lane id=":A0_13_1" index="1" disallow="pedestrian" speed="13.88" length="55.69" width="3.50" shape="295.48,253.58 298.52,309.28"/>
    </edge>
    <edge id=":A0_15" function="internal">
        <lane id=":A0_15_0" index="0" disallow="pedestrian" speed="13.88" length="41.69" width="3.50" shape="291.98,253.57 290.25,266.49 285.18,275.79 276.76,281.47 268.98,282.83"/>
    </edge>
    <edge id=":A0_16" function="internal">
        <lane id=":A0_16_0" index="0" disallow="pedestrian" speed="3.82" length="5.11" width="3.50" shape="291.98,253.57 291.10,254.88 290.23,255.31 289.35,254.87 288.48,253.55"/>
    </edge>
    <edge id=":A0_26" function="internal">
        <lane id=":A0_26_0" index="0" disallow="pedestrian" speed="9.59" length="4.03" width="3.50" shape="312.62,264.87 316.62,265.31"/>
    </edge>
    <edge id=":A0_27" function="internal">
        <lane id=":A0_27_0" index="0" disallow="pedestrian" speed="13.88" length="4.05" width="3.50" shape="268.98,282.83 265.00,283.53"/>
    </edge>
    <edge id=":A0_17" function="internal">
        <lane id=":A0_17_0" index="0" disallow="pedestrian" speed="10.26" length="19.50" width="3.50" shape="264.74,269.53 270.51,268.44 274.64,265.41 277.13,260.43 277.49,257.51"/>
    </edge>
    <edge id=":A0_18" function="internal">
        <lane id=":A0_18_0" index="0" disallow="pedestrian" speed="15.28" length="52.01" width="3.50" shape="264.80,273.03 316.66,268.81"/>
        <lane id=":A0_18_1" index="1" disallow="pedestrian" speed="15.28" length="52.01" width="3.50" shape="264.87,276.53 316.69,272.31"/>
    </edge>
    <edge id=":A0_20" function="internal">
        <lane id=":A0_20_0" index="0" disallow="pedestrian" speed="13.88" length="43.62" width="3.50" shape="264.93,280.03 277.54,281.67 286.76,287.12 292.59,296.38 294.28,305.48"/>
    </edge>
    <edge id=":A0_21" function="internal">
        <lane id=":A0_21_0" index="0" disallow="pedestrian" speed="3.82" length="5.11" width="3.50" shape="264.93,280.03 266.26,280.88 266.71,281.75 266.29,282.63 265.00,283.53"/>
    </edge>
    <edge id=":A0_28" function="internal">
        <lane id=":A0_28_0" index="0" disallow="pedestrian" speed="10.26" length="4.03" width="3.50" shape="277.49,257.51 277.98,253.52"/>
    </edge>
    <edge id=":A0_29" function="internal">
        <lane id=":A0_29_0" index="0" disallow="pedestrian" speed="13.88" length="4.04" width="3.50" shape="294.28,305.48 295.02,309.45"/>
    </edge>
    <edge id=":A0_c0" function="crossing" crossingEdges="A0B0 B0A0">
        <lane id=":A0_c0_0" index="0" allow="pedestrian" speed="2.78" length="31.50" width="4.00" shape="307.16,306.85 275.70,308.40" outlineShape="307.26,308.84 275.79,310.40 275.36,306.41 307.64,304.82 307.39,305.73"/>
    </edge>
    <edge id=":A0_c1" function="crossing" crossingEdges="A0A1 A1A0">
        <lane id=":A0_c1_0" index="0" allow="pedestrian" speed="2.78" length="35.00" width="4.00" shape="314.61,263.58 314.95,298.57" outlineShape="316.61,263.56 316.95,298.56 316.95,298.66 316.95,298.56 313.85,298.87 312.96,299.18 312.60,263.26 312.82,263.31"/>
    </edge>
    <edge id=":A0_c2" function="crossing" crossingEdges="A0bottom0 bottom0A0">
        <lane id=":A0_c2_0" index="0" allow="pedestrian" speed="2.78" length="28.00" width="4.00" shape="276.22,255.51 304.22,255.61" outlineShape="276.23,253.51 304.23,253.61 304.57,256.68 304.95,257.61 275.92,257.51"/>
    </edge>
    <edge id=":A0_c3" function="crossing" crossingEdges="A0left0 left0A0">
        <lane id=":A0_c3_0" index="0" allow="pedestrian" speed="2.78" length="28.00" width="4.00" shape="267.22,295.74 266.71,267.74" outlineShape="265.22,295.78 264.71,267.78 268.22,267.33 268.70,267.12 269.23,296.60 268.25,296.13"/>
    </edge>
    <edge id=":A0_w0" function="walkingarea">
        <lane id=":A0_w0_0" index="0" allow="pedestrian" speed="2.78" length="11.13" width="5.00" shape="265.22,295.78 265.31,300.78 270.80,310.64 275.79,310.40 275.30,305.88 274.29,302.19 272.79,299.34 270.77,297.32 268.25,296.13"/>
    </edge>
    <edge id=":A0_w1" function="walkingarea">
        <lane id=":A0_w1_0" index="0" allow="pedestrian" speed="2.78" length="8.52" width="5.00" shape="307.26,308.84 312.25,308.60 317.00,303.55 316.95,298.56 313.85,298.87 311.34,299.74 309.43,301.18 308.11,303.17 307.39,305.73"/>
    </edge>
    <edge id=":A0_w2" function="walkingarea">
        <lane id=":A0_w2_0" index="0" allow="pedestrian" speed="2.78" length="9.67" width="5.00" shape="316.61,263.56 316.56,258.56 309.23,253.63 304.23,253.61 304.57,256.68 305.59,259.19 307.31,261.13 309.72,262.51 312.82,263.31"/>
    </edge>
    <edge id=":A0_w3" function="walkingarea">
        <lane id=":A0_w3_0" index="0" allow="pedestrian" speed="2.78" length="11.30" width="5.00" shape="276.23,253.51 271.23,253.49 264.62,262.78 264.71,267.78 268.22,267.33 271.09,266.10 273.33,264.11 274.93,261.34 275.90,257.81"/>
    </edge>
    <edge id=":A1_0" function="internal">
        <lane id=":A1_0_0" index="0" disallow="pedestrian" speed="9.75" length="17.89" width="3.50" shape="660.72,291.02 655.49,291.77 651.72,294.50 649.42,299.21 649.09,301.90"/>
    </edge>
    <edge id=":A1_1" function="internal">
        <lane id=":A1_1_0" index="0" disallow="pedestrian" speed="15.28" length="45.77" width="3.50" shape="660.85,287.52 647.33,287.55 638.09,288.51 628.85,289.68 615.32,290.35"/>
        <lane id=":A1_1_1" index="1" disallow="pedestrian" speed="15.28" length="45.77" width="3.50" shape="660.99,284.02 647.42,284.05 638.14,285.01 628.87,286.18 615.28,286.85"/>
    </edge>
    <edge id=":A1_3" function="internal">
        <lane id=":A1_3_0" index="0" disallow="pedestrian" speed="13.88" length="42.17" width="3.50" shape="661.13,280.53 649.61,278.22 641.16,272.33 635.76,262.86 634.14,253.79"/>
    </edge>
    <edge id=":A1_4" function="internal">
        <lane id=":A1_4_0" index="0" disallow="pedestrian" speed="3.82" length="5.11" width="3.50" shape="661.13,280.53 659.86,279.60 659.45,278.71 659.93,277.85 661.27,277.03"/>
    </edge>
    <edge id=":A1_21" function="internal">
        <lane id=":A1_21_0" index="0" disallow="pedestrian" speed="9.75" length="4.02" width="3.50" shape="649.09,301.90 648.59,305.90"/>
    </edge>
    <edge id=":A1_22" function="internal">
        <lane id=":A1_22_0" index="0" disallow="pedestrian" speed="13.88" length="4.03" width="3.50" shape="634.14,253.79 633.43,249.82"/>
    </edge>
    <edge id=":A1_5" function="internal">
        <lane id=":A1_5_0" index="0" disallow="pedestrian" speed="10.89" length="21.08" width="3.50" shape="647.41,249.07 648.65,256.51 651.44,261.90 655.79,265.25 657.72,265.67"/>
    </edge>
    <edge id=":A1_6" function="internal">
        <lane id=":A1_6_0" index="0" disallow="pedestrian" speed="13.88" length="56.49" width="3.50" shape="643.92,249.25 645.09,305.85"/>
        <lane id=":A1_6_1" index="1" disallow="pedestrian" speed="13.88" length="56.49" width="3.50" shape="640.42,249.44 641.59,305.81"/>
    </edge>
    <edge id=":A1_8" function="internal">
        <lane id=":A1_8_0" index="0" disallow="pedestrian" speed="13.81" length="41.63" width="3.50" shape="636.93,249.63 636.25,264.30 632.41,274.80 625.41,281.16 619.24,282.49"/>
        <lane id=":A1_8_1" index="1" disallow="pedestrian" speed="13.35" length="38.58" width="3.50" shape="636.93,249.63 636.18,262.77 632.31,272.18 625.32,277.87 619.21,279.07"/>
    </edge>
    <edge id=":A1_10" function="internal">
        <lane id=":A1_10_0" index="0" disallow="pedestrian" speed="3.82" length="5.11" width="3.50" shape="636.93,249.63 636.13,250.99 635.28,251.47 634.38,251.08 633.43,249.82"/>
    </edge>
    <edge id=":A1_23" function="internal">
        <lane id=":A1_23_0" index="0" disallow="pedestrian" speed="10.89" length="4.06" width="3.50" shape="657.72,265.67 661.69,266.54"/>
    </edge>
    <edge id=":A1_24" function="internal">
        <lane id=":A1_24_0" index="0" disallow="pedestrian" speed="13.81" length="4.08" width="3.50" shape="619.24,282.49 615.25,283.35"/>
        <lane id=":A1_24_1" index="0" disallow="pedestrian" speed="13.35" length="4.07" width="3.50" shape="619.21,279.07 615.21,279.85"/>
    </edge>
    <edge id=":A1_11" function="internal">
        <lane id=":A1_11_0" index="0" disallow="pedestrian" speed="9.10" length="15.16" width="3.50" shape="615.04,262.35 620.27,261.55 623.92,259.25 625.97,255.47 626.09,254.22"/>
    </edge>
    <edge id=":A1_12" function="internal">
        <lane id=":A1_12_0" index="0" disallow="pedestrian" speed="15.28" length="46.63" width="3.50" shape="615.07,265.85 628.90,266.28 638.32,267.51 647.74,268.96 661.55,270.03"/>
        <lane id=":A1_12_1" index="1" disallow="pedestrian" speed="15.28" length="46.63" width="3.50" shape="615.11,269.35 628.88,269.78 638.27,271.01 647.65,272.46 661.41,273.53"/>
    </edge>
    <edge id=":A1_14" function="internal">
        <lane id=":A1_14_0" index="0" disallow="pedestrian" speed="14.29" length="44.24" width="3.50" shape="615.14,272.85 626.87,274.81 635.19,280.96 640.10,291.29 641.18,301.80"/>
        <lane id=":A1_14_1" index="1" disallow="pedestrian" speed="13.44" length="38.52" width="3.50" shape="615.18,276.35 625.35,278.10 632.55,283.59 636.80,292.81 637.70,301.76"/>
    </edge>
    <edge id=":A1_16" function="internal">
        <lane id=":A1_16_0" index="0" disallow="pedestrian" speed="3.82" length="5.11" width="3.50" shape="615.18,276.35 616.50,277.21 616.95,278.08 616.52,278.96 615.21,279.85"/>
    </edge>
    <edge id=":A1_25" function="internal">
        <lane id=":A1_25_0" index="0" disallow="pedestrian" speed="9.10" length="4.04" width="3.50" shape="626.09,254.22 626.44,250.20"/>
    </edge>
    <edge id=":A1_26" function="internal">
        <lane id=":A1_26_0" index="0" disallow="pedestrian" speed="14.29" length="4.03" width="3.50" shape="641.18,301.80 641.59,305.81"/>
        <lane id=":A1_26_1" index="0" disallow="pedestrian" speed="13.44" length="4.03" width="3.50" shape="637.70,301.76 638.09,305.76"/>
    </edge>
    <edge id=":A1_17" function="internal">
        <lane id=":A1_17_0" index="0" disallow="pedestrian" speed="9.23" length="15.44" width="3.50" shape="627.60,305.63 626.89,300.43 624.61,296.73 620.77,294.54 619.36,294.36"/>
    </edge>
    <edge id=":A1_18" function="internal">
        <lane id=":A1_18_0" index="0" disallow="pedestrian" speed="13.88" length="55.68" width="3.50" shape="631.10,305.67 629.94,250.01"/>
    </edge>
    <edge id=":A1_19" function="internal">
        <lane id=":A1_19_0" index="0" disallow="pedestrian" speed="13.77" length="40.85" width="3.50" shape="634.60,305.72 636.40,292.77 641.45,283.68 649.74,278.43 657.25,277.52"/>
    </edge>
    <edge id=":A1_20" function="internal">
        <lane id=":A1_20_0" index="0" disallow="pedestrian" speed="3.82" length="5.11" width="3.50" shape="634.60,305.72 635.49,304.42 636.37,303.99 637.24,304.44 638.09,305.76"/>
    </edge>
    <edge id=":A1_27" function="internal">
        <lane id=":A1_27_0" index="0" disallow="pedestrian" speed="9.23" length="4.04" width="3.50" shape="619.36,294.36 615.35,293.85"/>
    </edge>
    <edge id=":A1_28" function="internal">
        <lane id=":A1_28_0" index="0" disallow="pedestrian" speed="13.77" length="4.05" width="3.50" shape="657.25,277.52 661.27,277.03"/>
    </edge>
    <edge id=":A1_c0" function="crossing" crossingEdges="A1A2 A2A1">
        <lane id=":A1_c0_0" index="0" allow="pedestrian" speed="2.78" length="28.00" width="4.00" shape="659.76,264.71 658.65,292.69" outlineShape="661.76,264.79 660.65,292.77 657.55,293.02 656.62,293.39 657.79,264.05 658.14,264.22"/>
    </edge>
    <edge id=":A1_c1" function="crossing" crossingEdges="A1bottom1 bottom1A1">
        <lane id=":A1_c1_0" index="0" allow="pedestrian" speed="2.78" length="24.50" width="4.00" shape="624.80,252.29 649.27,250.97" outlineShape="624.70,250.29 649.16,248.97 649.65,252.95 624.33,254.32 624.58,253.41"/>
    </edge>
    <edge id=":A1_c2" function="crossing" crossingEdges="A1A0 A0A1">
        <lane id=":A1_c2_0" index="0" allow="pedestrian" speed="2.78" length="35.00" width="4.00" shape="617.37,295.58 617.02,260.58" outlineShape="615.37,295.60 615.02,260.60 615.02,260.50 615.02,260.60 618.13,260.29 619.02,259.98 619.37,296.09 618.61,295.85"/>
    </edge>
    <edge id=":A1_c3" function="crossing" crossingEdges="A1B1 B1A1">
        <lane id=":A1_c3_0" index="0" allow="pedestrian" speed="2.78" length="24.50" width="4.00" shape="650.37,303.92 625.87,303.61" outlineShape="650.34,305.92 625.85,305.61 625.59,302.52 625.28,301.60 650.67,301.92"/>
    </edge>
    <edge id=":A1_w0" function="walkingarea">
        <lane id=":A1_w0_0" index="0" allow="pedestrian" speed="2.78" length="10.23" width="5.00" shape="650.34,305.92 655.34,305.98 660.45,297.76 660.65,292.77 657.55,293.02 655.00,294.05 653.01,295.85 651.57,298.43 650.68,301.79"/>
    </edge>
    <edge id=":A1_w1" function="walkingarea">
        <lane id=":A1_w1_0" index="0" allow="pedestrian" speed="2.78" length="12.55" width="5.00" shape="661.76,264.79 661.96,259.79 654.15,248.70 649.16,248.97 649.74,253.67 650.93,257.55 652.72,260.60 655.13,262.82 658.14,264.22"/>
    </edge>
    <edge id=":A1_w2" function="walkingarea">
        <lane id=":A1_w2_0" index="0" allow="pedestrian" speed="2.78" length="8.52" width="5.00" shape="624.70,250.29 619.70,250.56 614.97,255.60 615.02,260.60 618.13,260.29 620.64,259.41 622.55,257.97 623.87,255.97 624.58,253.41"/>
    </edge>
    <edge id=":A1_w3" function="walkingarea">
        <lane id=":A1_w3_0" index="0" allow="pedestrian" speed="2.78" length="8.75" width="5.00" shape="615.37,295.60 615.42,300.60 620.85,305.54 625.85,305.61 625.59,302.52 624.74,300.00 623.29,298.05 621.25,296.66 618.61,295.85"/>
    </edge>
    <edge id=":A2_0" function="internal">
        <lane id=":A2_0_0" index="0" disallow="pedestrian" speed="11.45" length="23.16" width="3.50" shape="955.72,320.63 954.15,312.76 950.94,307.05 946.09,303.51 943.56,302.98"/>
    </edge>
    <edge id=":A2_1" function="internal">
        <lane id=":A2_1_0" index="0" disallow="pedestrian" speed="13.88" length="58.15" width="3.50" shape="959.21,320.34 957.94,305.67 956.86,291.33 956.30,276.99 956.60,262.30"/>
    </edge>
    <edge id=":A2_2" function="internal">
        <lane id=":A2_2_0" index="0" disallow="pedestrian" speed="13.92" length="44.46" width="3.50" shape="962.69,320.05 962.44,305.14 965.30,294.39 972.48,287.96 981.16,286.62"/>
        <lane id=":A2_2_1" index="1" disallow="pedestrian" speed="13.48" length="41.40" width="3.50" shape="962.69,320.05 962.53,306.37 965.43,296.74 972.57,291.14 981.09,290.02"/>
    </edge>
    <edge id=":A2_4" function="internal">
        <lane id=":A2_4_0" index="0" disallow="pedestrian" speed="3.82" length="5.11" width="3.50" shape="962.69,320.05 963.46,318.67 964.29,318.16 965.20,318.52 966.18,319.76"/>
    </edge>
    <edge id=":A2_21" function="internal">
        <lane id=":A2_21_0" index="0" disallow="pedestrian" speed="11.45" length="4.06" width="3.50" shape="943.56,302.98 939.59,302.14"/>
    </edge>
    <edge id=":A2_22" function="internal">
        <lane id=":A2_22_0" index="0" disallow="pedestrian" speed="13.92" length="4.06" width="3.50" shape="981.16,286.62 985.17,286.00"/>
        <lane id=":A2_22_1" index="0" disallow="pedestrian" speed="13.48" length="4.05" width="3.50" shape="981.09,290.02 985.10,289.49"/>
    </edge>
    <edge id=":A2_5" function="internal">
        <lane id=":A2_5_0" index="0" disallow="pedestrian" speed="9.02" length="15.62" width="3.50" shape="984.74,306.99 979.28,307.66 975.53,309.91 973.49,313.75 973.41,315.14"/>
    </edge>
    <edge id=":A2_6" function="internal">
        <lane id=":A2_6_0" index="0" disallow="pedestrian" speed="15.28" length="45.30" width="3.50" shape="984.81,303.49 939.73,298.64"/>
        <lane id=":A2_6_1" index="1" disallow="pedestrian" speed="15.28" length="45.30" width="3.50" shape="984.88,299.99 939.87,295.14"/>
    </edge>
    <edge id=":A2_8" function="internal">
        <lane id=":A2_8_0" index="0" disallow="pedestrian" speed="14.61" length="47.00" width="3.50" shape="984.96,296.49 971.84,294.12 962.74,287.63 957.66,277.02 956.89,266.32"/>
        <lane id=":A2_8_1" index="1" disallow="pedestrian" speed="13.78" length="41.21" width="3.50" shape="985.03,292.99 973.49,290.88 965.48,285.09 961.02,275.63 960.37,266.51"/>
    </edge>
    <edge id=":A2_10" function="internal">
        <lane id=":A2_10_0" index="0" disallow="pedestrian" speed="3.82" length="5.11" width="3.50" shape="985.03,292.99 983.73,292.09 983.31,291.21 983.77,290.34 985.10,289.49"/>
    </edge>
    <edge id=":A2_23" function="internal">
        <lane id=":A2_23_0" index="0" disallow="pedestrian" speed="9.02" length="4.04" width="3.50" shape="973.41,315.14 973.16,319.18"/>
    </edge>
    <edge id=":A2_24" function="internal">
        <lane id=":A2_24_0" index="0" disallow="pedestrian" speed="14.61" length="4.03" width="3.50" shape="956.89,266.32 956.60,262.30"/>
        <lane id=":A2_24_1" index="0" disallow="pedestrian" speed="13.78" length="4.03" width="3.50" shape="960.37,266.51 960.09,262.49"/>
    </edge>
    <edge id=":A2_11" function="internal">
        <lane id=":A2_11_0" index="0" disallow="pedestrian" speed="9.12" length="15.11" width="3.50" shape="974.07,263.28 974.52,268.53 976.56,272.32 980.18,274.64 981.40,274.84"/>
    </edge>
    <edge id=":A2_12" function="internal">
        <lane id=":A2_12_0" index="0" disallow="pedestrian" speed="13.88" length="56.69" width="3.50" shape="970.57,263.08 969.61,279.62 968.97,293.16 968.91,305.76 969.67,319.47"/>
        <lane id=":A2_12_1" index="1" disallow="pedestrian" speed="13.88" length="56.69" width="3.50" shape="967.08,262.88 966.11,279.50 965.48,293.21 965.42,305.97 966.18,319.76"/>
    </edge>
    <edge id=":A2_14" function="internal">
        <lane id=":A2_14_0" index="0" disallow="pedestrian" speed="13.57" length="38.07" width="3.50" shape="963.58,262.69 961.48,275.68 956.86,284.84 949.70,290.16 944.04,291.03"/>
    </edge>
    <edge id=":A2_15" function="internal">
        <lane id=":A2_15_0" index="0" disallow="pedestrian" speed="3.82" length="5.11" width="3.50" shape="963.58,262.69 962.64,263.95 961.74,264.34 960.89,263.85 960.09,262.49"/>
    </edge>
    <edge id=":A2_25" function="internal">
        <lane id=":A2_25_0" index="0" disallow="pedestrian" speed="9.12" length="4.04" width="3.50" shape="981.40,274.84 985.39,275.50"/>
    </edge>
    <edge id=":A2_26" function="internal">
        <lane id=":A2_26_0" index="0" disallow="pedestrian" speed="13.57" length="4.07" width="3.50" shape="944.04,291.03 940.01,291.64"/>
    </edge>
    <edge id=":A2_16" function="internal">
        <lane id=":A2_16_0" index="0" disallow="pedestrian" speed="10.03" length="18.51" width="3.50" shape="940.57,277.66 945.72,276.86 949.52,274.00 951.98,269.08 952.46,266.07"/>
    </edge>
    <edge id=":A2_17" function="internal">
        <lane id=":A2_17_0" index="0" disallow="pedestrian" speed="15.28" length="45.02" width="3.50" shape="940.43,281.15 953.76,281.13 962.87,280.24 971.98,279.26 985.32,279.00"/>
        <lane id=":A2_17_1" index="1" disallow="pedestrian" speed="15.28" length="45.02" width="3.50" shape="940.29,284.65 953.64,284.63 962.76,283.74 971.89,282.76 985.24,282.50"/>
    </edge>
    <edge id=":A2_19" function="internal">
        <lane id=":A2_19_0" index="0" disallow="pedestrian" speed="13.88" length="41.33" width="3.50" shape="940.15,288.15 950.58,290.47 958.40,296.52 963.60,306.28 965.42,315.81"/>
    </edge>
    <edge id=":A2_20" function="internal">
        <lane id=":A2_20_0" index="0" disallow="pedestrian" speed="3.82" length="5.11" width="3.50" shape="940.15,288.15 941.43,289.07 941.83,289.97 941.36,290.82 940.01,291.64"/>
    </edge>
    <edge id=":A2_27" function="internal">
        <lane id=":A2_27_0" index="0" disallow="pedestrian" speed="10.03" length="4.02" width="3.50" shape="952.46,266.07 953.10,262.10"/>
    </edge>
    <edge id=":A2_28" function="internal">
        <lane id=":A2_28_0" index="0" disallow="pedestrian" speed="13.88" length="4.02" width="3.50" shape="965.42,315.81 966.18,319.76"/>
    </edge>
    <edge id=":A2_c0" function="crossing" crossingEdges="A2B2 B2A2">
        <lane id=":A2_c0_0" index="0" allow="pedestrian" speed="2.78" length="21.00" width="4.00" shape="974.74,317.04 953.81,318.78" outlineShape="974.90,319.03 953.87,320.78 953.36,316.81 975.14,315.00 974.93,315.83"/>
    </edge>
    <edge id=":A2_c1" function="crossing" crossingEdges="A2A3 A3A2">
        <lane id=":A2_c1_0" index="0" allow="pedestrian" speed="2.78" length="35.00" width="4.00" shape="983.42,273.71 982.70,308.70" outlineShape="985.42,273.75 984.70,308.74 984.70,308.84 984.70,308.74 981.46,308.97 980.69,309.21 981.44,273.08 982.33,273.40"/>
    </edge>
    <edge id=":A2_c2" function="crossing" crossingEdges="A2bottom2 bottom2A2">
        <lane id=":A2_c2_0" index="0" allow="pedestrian" speed="2.78" length="24.50" width="4.00" shape="951.24,264.00 975.70,265.37" outlineShape="951.25,262.00 975.91,263.38 975.92,266.49 976.18,267.40 950.88,265.98"/>
    </edge>
    <edge id=":A2_c3" function="crossing" crossingEdges="A2A1 A1A2">
        <lane id=":A2_c3_0" index="0" allow="pedestrian" speed="2.78" length="28.00" width="4.00" shape="941.52,303.96 942.64,275.99" outlineShape="939.52,303.88 940.64,275.91 943.69,275.63 944.67,275.21 943.50,304.49"/>
    </edge>
    <edge id=":A2_w0" function="walkingarea">
        <lane id=":A2_w0_0" index="0" allow="pedestrian" speed="2.78" length="13.88" width="5.00" shape="939.52,303.88 939.33,308.88 948.99,321.19 953.97,320.78 953.19,315.76 951.76,311.62 949.68,308.37 946.95,305.99 943.56,304.50"/>
    </edge>
    <edge id=":A2_w1" function="walkingarea">
        <lane id=":A2_w1_0" index="0" allow="pedestrian" speed="2.78" length="8.56" width="5.00" shape="974.90,319.03 979.88,318.62 984.60,313.74 984.70,308.74 981.46,308.97 978.87,309.79 976.91,311.20 975.60,313.22 974.93,315.83"/>
    </edge>
    <edge id=":A2_w2" function="walkingarea">
        <lane id=":A2_w2_0" index="0" allow="pedestrian" speed="2.78" length="8.52" width="5.00" shape="985.42,273.75 985.53,268.75 980.81,263.65 975.81,263.37 975.92,266.49 976.63,269.04 977.93,271.05 979.83,272.50 982.33,273.40"/>
    </edge>
    <edge id=":A2_w3" function="walkingarea">
        <lane id=":A2_w3_0" index="0" allow="pedestrian" speed="2.78" length="10.80" width="5.00" shape="951.35,262.00 946.36,261.72 940.84,270.91 940.64,275.91 943.69,275.63 946.24,274.54 948.27,272.63 949.81,269.90 950.83,266.36"/>
    </edge>
    <edge id=":A3_0" function="internal">
        <lane id=":A3_0_0" index="0" disallow="pedestrian" speed="11.75" length="23.58" width="3.50" shape="1261.26,329.59 1259.18,322.15 1255.46,316.79 1250.11,313.51 1247.10,312.99"/>
    </edge>
    <edge id=":A3_1" function="internal">
        <lane id=":A3_1_0" index="0" disallow="pedestrian" speed="13.88" length="62.77" width="3.50" shape="1264.73,329.08 1262.55,313.78 1260.69,297.92 1259.53,282.02 1259.46,266.61"/>
    </edge>
    <edge id=":A3_2" function="internal">
        <lane id=":A3_2_0" index="0" disallow="pedestrian" speed="13.86" length="45.25" width="3.50" shape="1268.19,328.56 1266.98,313.55 1269.24,302.53 1276.24,295.70 1285.24,294.02"/>
        <lane id=":A3_2_1" index="1" disallow="pedestrian" speed="13.41" length="42.02" width="3.50" shape="1268.19,328.56 1267.18,314.78 1269.61,304.89 1276.60,298.88 1285.28,297.44"/>
    </edge>
    <edge id=":A3_4" function="internal">
        <lane id=":A3_4_0" index="0" disallow="pedestrian" speed="3.82" length="5.11" width="3.50" shape="1268.19,328.56 1268.86,327.13 1269.66,326.57 1270.59,326.88 1271.65,328.05"/>
    </edge>
    <edge id=":A3_24" function="internal">
        <lane id=":A3_24_0" index="0" disallow="pedestrian" speed="11.75" length="4.05" width="3.50" shape="1247.10,312.99 1243.11,312.31"/>
    </edge>
    <edge id=":A3_25" function="internal">
        <lane id=":A3_25_0" index="0" disallow="pedestrian" speed="13.86" length="4.06" width="3.50" shape="1285.24,294.02 1289.24,293.27"/>
        <lane id=":A3_25_1" index="0" disallow="pedestrian" speed="13.41" length="4.05" width="3.50" shape="1285.28,297.44 1289.27,296.77"/>
    </edge>